<?xml version="1.0" encoding="UTF-8"?>

<!-- generated on Wed Nov 20 20:56:40 2013 by SUMO netconvert Version 0.17.1
<?xml version="1.0" encoding="UTF-8"?>

<configuration xmlns:xsi="http://www.w3.org/2001/XMLSchema-instance" xsi:noNamespaceSchemaLocation="http://sumo.sf.net/xsd/netconvertConfiguration.xsd">

    <input>
        <osm-files value="osm.osm"/>
    </input>

    <output>
        <output-file value="test.net.xml"/>
    </output>

    <projection>
        <proj.utm value="true"/>
    </projection>

</configuration>
-->

<net version="0.13" xmlns:xsi="http://www.w3.org/2001/XMLSchema-instance" xsi:noNamespaceSchemaLocation="http://sumo.sf.net/xsd/net_file.xsd">

    <location netOffset="-578895.63,-4137896.74" convBoundary="0.00,0.00,5207.02,2878.99" origBoundary="-122.108515,37.384254,-122.049964,37.410266" projParameter="+proj=utm +zone=10 +ellps=WGS84 +datum=WGS84 +units=m +no_defs"/>

    <edge id=":1027195868_0" function="internal">
        <lane id=":1027195868_0_0" index="0" speed="20.83" length="10.67" shape="2976.83,1006.02 2979.65,1007.00 2981.81,1007.13 2984.10,1006.88 2987.31,1006.71"/>
    </edge>
    <edge id=":1027195868_1" function="internal">
        <lane id=":1027195868_1_0" index="0" speed="27.78" length="8.80" shape="2979.93,1010.97 2981.73,1009.10 2983.56,1007.76 2985.42,1006.97 2987.31,1006.71"/>
    </edge>
    <edge id=":1027195868_2" function="internal">
        <lane id=":1027195868_2_0" index="0" speed="27.78" length="5.89" shape="2982.46,1013.08 2983.73,1011.73 2984.95,1010.77 2986.14,1010.20 2987.29,1010.01"/>
    </edge>
    <edge id=":1044247098_0" function="internal">
        <lane id=":1044247098_0_0" index="0" speed="20.83" length="5.42" shape="3269.60,1920.97 3268.36,1920.13 3267.14,1919.86 3265.95,1920.16 3264.79,1921.03"/>
    </edge>
    <edge id=":1044247098_1" function="internal">
        <lane id=":1044247098_1_0" index="0" speed="27.78" length="9.81" shape="3269.60,1920.97 3262.40,1914.31"/>
    </edge>
    <edge id=":1044247098_2" function="internal">
        <lane id=":1044247098_2_0" index="0" speed="27.78" length="9.69" shape="3271.80,1918.51 3264.68,1911.93"/>
    </edge>
    <edge id=":1044247098_3" function="internal">
        <lane id=":1044247098_3_0" index="0" speed="20.83" length="8.00" shape="3271.80,1918.51 3269.83,1916.47 3268.76,1914.67 3268.60,1913.11 3269.34,1911.80"/>
    </edge>
    <edge id=":1044247098_4" function="internal">
        <lane id=":1044247098_4_0" index="0" speed="13.89" length="9.75" shape="3271.68,1914.13 3264.79,1921.03"/>
    </edge>
    <edge id=":1044247098_5" function="internal">
        <lane id=":1044247098_5_0" index="0" speed="20.83" length="8.08" shape="3271.68,1914.13 3270.38,1914.85 3268.78,1914.73 3266.88,1913.76 3264.68,1911.93"/>
    </edge>
    <edge id=":1044247098_6" function="internal">
        <lane id=":1044247098_6_0" index="0" speed="13.89" length="4.82" shape="3271.68,1914.13 3270.22,1914.42 3269.34,1914.13 3269.05,1913.26 3269.34,1911.80"/>
    </edge>
    <edge id=":1044247098_7" function="internal">
        <lane id=":1044247098_7_0" index="0" speed="20.83" length="5.02" shape="3262.45,1918.70 3263.28,1917.59 3263.55,1916.49 3263.25,1915.40 3262.40,1914.31"/>
    </edge>
    <edge id=":1044247098_8" function="internal">
        <lane id=":1044247098_8_0" index="0" speed="13.89" length="9.75" shape="3262.45,1918.70 3269.34,1911.80"/>
    </edge>
    <edge id=":1044247098_9" function="internal">
        <lane id=":1044247098_9_0" index="0" speed="13.89" length="4.82" shape="3262.45,1918.70 3263.91,1918.41 3264.78,1918.70 3265.08,1919.57 3264.79,1921.03"/>
    </edge>
    <edge id=":1044247132_0" function="internal">
        <lane id=":1044247132_0_0" index="0" speed="10.60" length="6.33" shape="3165.50,1769.44 3167.23,1770.53 3168.78,1771.06 3170.14,1771.06 3171.31,1770.51"/>
    </edge>
    <edge id=":1044247132_1" function="internal">
        <lane id=":1044247132_1_0" index="0" speed="5.56" length="4.82" shape="3165.50,1769.44 3166.00,1770.84 3165.84,1771.75 3165.02,1772.17 3163.53,1772.09"/>
    </edge>
    <edge id=":1044247132_2" function="internal">
        <lane id=":1044247132_2_0" index="0" speed="10.60" length="5.37" shape="3163.57,1776.45 3164.64,1775.35 3164.99,1774.26 3164.62,1773.17 3163.53,1772.09"/>
    </edge>
    <edge id=":1044247132_3" function="internal">
        <lane id=":1044247132_3_0" index="0" speed="15.65" length="9.76" shape="3163.57,1776.45 3171.31,1770.51"/>
    </edge>
    <edge id=":1044247132_4" function="internal">
        <lane id=":1044247132_4_0" index="0" speed="15.65" length="9.76" shape="3165.58,1779.07 3173.32,1773.12"/>
    </edge>
    <edge id=":1044247158_0" function="internal">
        <lane id=":1044247158_0_0" index="0" speed="27.78" length="10.12" shape="3143.98,1800.77 3141.83,1798.67 3140.35,1797.24 3138.87,1795.82 3136.69,1793.75"/>
    </edge>
    <edge id=":1044247158_1" function="internal">
        <lane id=":1044247158_1_0" index="0" speed="27.78" length="10.16" shape="3146.28,1798.40 3144.12,1796.30 3142.64,1794.86 3141.15,1793.44 3138.97,1791.36"/>
    </edge>
    <edge id=":1044247158_2" function="internal">
        <lane id=":1044247158_2_0" index="0" speed="21.71" length="5.11" shape="3146.28,1798.40 3145.41,1797.27 3145.15,1796.17 3145.49,1795.09 3146.44,1794.04"/>
    </edge>
    <edge id=":1044247158_3" function="internal">
        <lane id=":1044247158_3_0" index="0" speed="21.71" length="5.10" shape="3136.62,1798.13 3137.53,1797.05 3137.85,1795.96 3137.57,1794.86 3136.69,1793.75"/>
    </edge>
    <edge id=":1044247158_4" function="internal">
        <lane id=":1044247158_4_0" index="0" speed="21.71" length="10.75" shape="3138.81,1800.60 3140.73,1798.32 3141.40,1796.02 3140.81,1793.70 3138.97,1791.36"/>
    </edge>
    <edge id=":1044247158_5" function="internal">
        <lane id=":1044247158_5_0" index="0" speed="15.65" length="10.81" shape="3138.81,1800.60 3140.77,1798.16 3141.53,1796.00 3142.30,1793.86 3144.33,1791.50"/>
    </edge>
    <edge id=":1044247212_0" function="internal">
        <lane id=":1044247212_0_0" index="0" speed="10.60" length="6.34" shape="3190.65,1750.12 3192.39,1751.20 3193.93,1751.74 3195.29,1751.74 3196.46,1751.19"/>
    </edge>
    <edge id=":1044247212_1" function="internal">
        <lane id=":1044247212_1_0" index="0" speed="5.56" length="4.82" shape="3190.65,1750.12 3191.15,1751.52 3190.99,1752.42 3190.17,1752.84 3188.68,1752.76"/>
    </edge>
    <edge id=":1044247212_2" function="internal">
        <lane id=":1044247212_2_0" index="0" speed="10.60" length="5.37" shape="3188.72,1757.13 3189.79,1756.03 3190.15,1754.93 3189.78,1753.85 3188.68,1752.76"/>
    </edge>
    <edge id=":1044247212_3" function="internal">
        <lane id=":1044247212_3_0" index="0" speed="15.65" length="9.76" shape="3188.72,1757.13 3196.46,1751.19"/>
    </edge>
    <edge id=":1044247212_4" function="internal">
        <lane id=":1044247212_4_0" index="0" speed="15.65" length="9.75" shape="3190.73,1759.74 3198.47,1753.81"/>
    </edge>
    <edge id=":1044247218_0" function="internal">
        <lane id=":1044247218_0_0" index="0" speed="5.56" length="9.49" shape="3125.41,1741.92 3122.55,1739.78 3120.21,1738.56 3118.40,1738.28 3117.11,1738.92"/>
    </edge>
    <edge id=":1044247218_1" function="internal">
        <lane id=":1044247218_1_0" index="0" speed="5.56" length="16.99" shape="3125.41,1741.92 3121.62,1737.98 3120.88,1735.05 3123.21,1733.13 3128.61,1732.22"/>
    </edge>
    <edge id=":1044247218_2" function="internal">
        <lane id=":1044247218_2_0" index="0" speed="5.56" length="4.82" shape="3125.41,1741.92 3124.99,1740.49 3125.20,1739.60 3126.05,1739.23 3127.53,1739.39"/>
    </edge>
    <edge id=":1044247218_3" function="internal">
        <lane id=":1044247218_3_0" index="0" speed="5.56" length="6.78" shape="3128.80,1735.51 3126.65,1735.87 3125.72,1736.64 3126.01,1737.81 3127.53,1739.39"/>
    </edge>
    <edge id=":1044247218_4" function="internal">
        <lane id=":1044247218_4_0" index="0" speed="5.56" length="12.58" shape="3128.80,1735.51 3125.35,1735.65 3122.36,1735.95 3119.67,1736.88 3117.11,1738.92"/>
    </edge>
    <edge id=":1044247218_5" function="internal">
        <lane id=":1044247218_5_0" index="0" speed="5.56" length="4.82" shape="3128.80,1735.51 3127.52,1734.76 3127.06,1733.96 3127.42,1733.11 3128.61,1732.22"/>
    </edge>
    <edge id=":1044247218_6" function="internal">
        <lane id=":1044247218_6_0" index="0" speed="5.56" length="14.97" shape="3114.69,1736.68 3117.59,1734.48 3121.05,1733.18 3124.81,1732.52 3128.61,1732.22"/>
    </edge>
    <edge id=":1044247218_7" function="internal">
        <lane id=":1044247218_7_0" index="0" speed="5.56" length="14.48" shape="3114.69,1736.68 3117.05,1735.16 3119.99,1735.10 3123.48,1736.51 3127.53,1739.39"/>
    </edge>
    <edge id=":1044247218_8" function="internal">
        <lane id=":1044247218_8_0" index="0" speed="5.56" length="4.82" shape="3114.69,1736.68 3116.13,1736.33 3117.02,1736.59 3117.34,1737.45 3117.11,1738.92"/>
    </edge>
    <edge id=":1044247227_0" function="internal">
        <lane id=":1044247227_0_0" index="0" speed="21.71" length="6.38" shape="3154.11,1810.58 3152.71,1809.56 3151.29,1809.18 3149.83,1809.41 3148.36,1810.26"/>
    </edge>
    <edge id=":1044247227_1" function="internal">
        <lane id=":1044247227_1_0" index="0" speed="27.78" length="10.49" shape="3154.11,1810.58 3151.86,1808.42 3150.32,1806.94 3148.79,1805.46 3146.56,1803.29"/>
    </edge>
    <edge id=":1044247227_2" function="internal">
        <lane id=":1044247227_2_0" index="0" speed="27.78" length="10.46" shape="3156.39,1808.19 3154.15,1806.04 3152.62,1804.57 3151.09,1803.09 3148.87,1800.92"/>
    </edge>
    <edge id=":1044247227_3" function="internal">
        <lane id=":1044247227_3_0" index="0" speed="15.65" length="11.14" shape="3156.61,1803.82 3153.78,1805.37 3151.47,1805.74 3149.15,1806.11 3146.32,1807.66"/>
    </edge>
    <edge id=":1044247227_4" function="internal">
        <lane id=":1044247227_4_0" index="0" speed="21.71" length="6.34" shape="3154.58,1801.22 3153.09,1802.08 3151.65,1802.32 3150.24,1801.93 3148.87,1800.92"/>
    </edge>
    <edge id=":1044247254_0" function="internal">
        <lane id=":1044247254_0_0" index="0" speed="16.67" length="5.13" shape="3224.71,1852.36 3223.76,1853.43 3223.42,1854.52 3223.69,1855.62 3224.57,1856.75"/>
    </edge>
    <edge id=":1044247254_1" function="internal">
        <lane id=":1044247254_1_0" index="0" speed="5.56" length="4.82" shape="3224.71,1852.36 3223.23,1852.53 3222.38,1852.16 3222.17,1851.27 3222.58,1849.84"/>
    </edge>
    <edge id=":1044247254_2" function="internal">
        <lane id=":1044247254_2_0" index="0" speed="16.67" length="5.47" shape="3217.67,1850.16 3218.78,1850.90 3219.96,1851.09 3221.23,1850.74 3222.58,1849.84"/>
    </edge>
    <edge id=":1044247254_3" function="internal">
        <lane id=":1044247254_3_0" index="0" speed="27.78" length="9.54" shape="3217.67,1850.16 3224.57,1856.75"/>
    </edge>
    <edge id=":1044247254_4" function="internal">
        <lane id=":1044247254_4_0" index="0" speed="27.78" length="9.54" shape="3215.39,1852.54 3222.29,1859.13"/>
    </edge>
    <edge id=":1044247254_5" function="internal">
        <lane id=":1044247254_5_0" index="0" speed="13.89" length="10.55" shape="3217.52,1858.53 3217.45,1856.65 3218.27,1854.58 3219.98,1852.31 3222.58,1849.84"/>
    </edge>
    <edge id=":1044247254_6" function="internal">
        <lane id=":1044247254_6_0" index="0" speed="25.00" length="8.39" shape="3217.52,1858.53 3217.22,1856.51 3217.91,1855.94 3219.60,1856.81 3222.29,1859.13"/>
    </edge>
    <edge id=":1044247376_0" function="internal">
        <lane id=":1044247376_0_0" index="0" speed="27.78" length="13.19" shape="3103.98,1762.25 3102.36,1758.81 3100.56,1756.86 3098.31,1755.20 3095.30,1752.65"/>
    </edge>
    <edge id=":1044247376_1" function="internal">
        <lane id=":1044247376_1_0" index="0" speed="16.67" length="14.19" shape="3107.15,1761.09 3104.12,1757.26 3103.02,1753.37 3103.84,1749.44 3104.55,1748.41"/>
    </edge>
    <edge id=":1044247376_10" function="internal">
        <lane id=":1044247376_10_0" index="0" speed="16.67" length="3.61" shape="3104.55,1748.41 3106.59,1745.44"/>
    </edge>
    <edge id=":1044247376_2" function="internal">
        <lane id=":1044247376_2_0" index="0" speed="27.78" length="12.13" shape="3107.15,1761.09 3104.25,1757.88 3103.63,1756.00 3105.31,1755.42 3109.29,1756.16"/>
    </edge>
    <edge id=":1044247376_3" function="internal">
        <lane id=":1044247376_3_0" index="0" speed="16.67" length="7.22" shape="3109.02,1747.68 3107.71,1749.51 3107.46,1751.00 3108.28,1752.15 3110.16,1752.97"/>
    </edge>
    <edge id=":1044247376_4" function="internal">
        <lane id=":1044247376_4_0" index="0" speed="16.67" length="13.27" shape="3109.02,1747.68 3105.80,1750.55 3102.83,1751.94 3100.09,1751.86 3097.60,1750.29"/>
    </edge>
    <edge id=":1044247376_5" function="internal">
        <lane id=":1044247376_5_0" index="0" speed="5.56" length="4.82" shape="3109.02,1747.68 3107.57,1748.03 3106.68,1747.78 3106.36,1746.91 3106.59,1745.44"/>
    </edge>
    <edge id=":1044247376_6" function="internal">
        <lane id=":1044247376_6_0" index="0" speed="16.67" length="5.03" shape="3102.21,1745.56 3103.33,1746.37 3104.43,1746.63 3105.52,1746.32 3106.59,1745.44"/>
    </edge>
    <edge id=":1044247376_7" function="internal">
        <lane id=":1044247376_7_0" index="0" speed="27.78" length="11.16" shape="3102.21,1745.56 3104.35,1748.12 3105.68,1750.15 3107.25,1751.75 3110.16,1752.97"/>
    </edge>
    <edge id=":1044247376_8" function="internal">
        <lane id=":1044247376_8_0" index="0" speed="27.78" length="12.80" shape="3099.90,1747.92 3102.41,1750.82 3104.01,1753.06 3105.91,1754.79 3109.29,1756.16"/>
    </edge>
    <edge id=":1044247376_9" function="internal">
        <lane id=":1044247376_9_0" index="0" speed="27.78" length="2.41" shape="3099.90,1747.92 3100.22,1749.38 3099.94,1750.26"/>
    </edge>
    <edge id=":1044247376_11" function="internal">
        <lane id=":1044247376_11_0" index="0" speed="27.78" length="2.41" shape="3099.94,1750.26 3099.06,1750.56 3097.60,1750.29"/>
    </edge>
    <edge id=":1044247389_0" function="internal">
        <lane id=":1044247389_0_0" index="0" speed="5.56" length="5.42" shape="3149.23,1761.47 3148.06,1760.87 3146.86,1760.81 3145.65,1761.29 3144.40,1762.30"/>
    </edge>
    <edge id=":1044247389_1" function="internal">
        <lane id=":1044247389_1_0" index="0" speed="5.56" length="9.44" shape="3149.23,1761.47 3141.83,1755.61"/>
    </edge>
    <edge id=":1044247389_2" function="internal">
        <lane id=":1044247389_2_0" index="0" speed="5.56" length="4.82" shape="3149.23,1761.47 3148.73,1760.07 3148.89,1759.16 3149.72,1758.74 3151.20,1758.82"/>
    </edge>
    <edge id=":1044247389_3" function="internal">
        <lane id=":1044247389_3_0" index="0" speed="5.56" length="9.26" shape="3143.94,1753.08 3151.20,1758.82"/>
    </edge>
    <edge id=":1044247389_4" function="internal">
        <lane id=":1044247389_4_0" index="0" speed="5.56" length="10.73" shape="3143.94,1753.08 3145.93,1755.29 3146.67,1757.56 3146.16,1759.90 3144.40,1762.30"/>
    </edge>
    <edge id=":1044247389_5" function="internal">
        <lane id=":1044247389_5_0" index="0" speed="5.56" length="4.82" shape="3143.94,1753.08 3144.36,1754.50 3144.15,1755.40 3143.31,1755.77 3141.83,1755.61"/>
    </edge>
    <edge id=":1044247389_6" function="internal">
        <lane id=":1044247389_6_0" index="0" speed="5.56" length="5.10" shape="3142.05,1759.99 3142.88,1758.85 3143.12,1757.74 3142.77,1756.66 3141.83,1755.61"/>
    </edge>
    <edge id=":1044247389_7" function="internal">
        <lane id=":1044247389_7_0" index="0" speed="5.56" length="10.23" shape="3142.05,1759.99 3144.31,1758.19 3146.60,1757.39 3148.89,1757.60 3151.20,1758.82"/>
    </edge>
    <edge id=":1044247389_8" function="internal">
        <lane id=":1044247389_8_0" index="0" speed="5.56" length="4.82" shape="3142.05,1759.99 3143.50,1759.69 3144.38,1759.97 3144.68,1760.84 3144.40,1762.30"/>
    </edge>
    <edge id=":1044247424_0" function="internal">
        <lane id=":1044247424_0_0" index="0" speed="27.78" length="0.10" shape="3233.76,1886.89 3233.76,1886.89"/>
    </edge>
    <edge id=":1044247424_1" function="internal">
        <lane id=":1044247424_1_0" index="0" speed="27.78" length="3.27" shape="3236.04,1884.50 3233.69,1882.24"/>
    </edge>
    <edge id=":1044247424_2" function="internal">
        <lane id=":1044247424_2_0" index="0" speed="25.00" length="3.24" shape="3236.04,1884.50 3233.89,1882.09"/>
    </edge>
    <edge id=":1044247433_0" function="internal">
        <lane id=":1044247433_0_0" index="0" speed="16.67" length="5.05" shape="3136.09,1770.79 3135.26,1771.91 3135.01,1773.02 3135.33,1774.10 3136.22,1775.17"/>
    </edge>
    <edge id=":1044247433_1" function="internal">
        <lane id=":1044247433_1_0" index="0" speed="5.56" length="4.82" shape="3136.09,1770.79 3134.63,1771.10 3133.75,1770.81 3133.45,1769.94 3133.73,1768.48"/>
    </edge>
    <edge id=":1044247433_2" function="internal">
        <lane id=":1044247433_2_0" index="0" speed="16.67" length="5.16" shape="3129.17,1768.80 3130.30,1769.54 3131.44,1769.74 3132.58,1769.38 3133.73,1768.48"/>
    </edge>
    <edge id=":1044247433_3" function="internal">
        <lane id=":1044247433_3_0" index="0" speed="27.78" length="9.50" shape="3129.17,1768.80 3136.22,1775.17"/>
    </edge>
    <edge id=":1044247433_4" function="internal">
        <lane id=":1044247433_4_0" index="0" speed="27.78" length="9.50" shape="3126.96,1771.24 3134.00,1777.62"/>
    </edge>
    <edge id=":1068222019_0" function="internal">
        <lane id=":1068222019_0_0" index="0" speed="5.56" length="9.50" shape="3066.31,1030.52 3057.77,1034.67"/>
    </edge>
    <edge id=":1068222019_1" function="internal">
        <lane id=":1068222019_1_0" index="0" speed="5.56" length="10.32" shape="3066.31,1030.52 3063.63,1031.38 3061.30,1031.17 3059.35,1029.90 3057.75,1027.56"/>
    </edge>
    <edge id=":1068222019_2" function="internal">
        <lane id=":1068222019_2_0" index="0" speed="5.56" length="4.82" shape="3066.31,1030.52 3064.84,1030.32 3064.11,1029.76 3064.12,1028.83 3064.87,1027.55"/>
    </edge>
    <edge id=":1068222019_3" function="internal">
        <lane id=":1068222019_3_0" index="0" speed="5.56" length="10.34" shape="3060.72,1026.11 3061.59,1028.80 3061.39,1031.13 3060.12,1033.09 3057.77,1034.67"/>
    </edge>
    <edge id=":1068222019_4" function="internal">
        <lane id=":1068222019_4_0" index="0" speed="5.56" length="5.01" shape="3060.72,1026.11 3061.49,1027.25 3062.44,1027.87 3063.57,1027.97 3064.87,1027.55"/>
    </edge>
    <edge id=":1068222019_5" function="internal">
        <lane id=":1068222019_5_0" index="0" speed="5.56" length="4.82" shape="3060.72,1026.11 3060.52,1027.58 3059.96,1028.31 3059.04,1028.31 3057.75,1027.56"/>
    </edge>
    <edge id=":1068222019_6" function="internal">
        <lane id=":1068222019_6_0" index="0" speed="5.56" length="5.00" shape="3056.33,1031.71 3057.46,1030.94 3058.08,1029.99 3058.18,1028.86 3057.75,1027.56"/>
    </edge>
    <edge id=":1068222019_7" function="internal">
        <lane id=":1068222019_7_0" index="0" speed="5.56" length="9.50" shape="3056.33,1031.71 3064.87,1027.55"/>
    </edge>
    <edge id=":1068222019_8" function="internal">
        <lane id=":1068222019_8_0" index="0" speed="5.56" length="4.82" shape="3056.33,1031.71 3057.80,1031.91 3058.53,1032.47 3058.52,1033.39 3057.77,1034.67"/>
    </edge>
    <edge id=":1068222046_0" function="internal">
        <lane id=":1068222046_0_0" index="0" speed="5.56" length="9.50" shape="2903.84,1109.56 2895.29,1113.71"/>
    </edge>
    <edge id=":1068222046_1" function="internal">
        <lane id=":1068222046_1_0" index="0" speed="5.56" length="10.32" shape="2903.84,1109.56 2901.15,1110.42 2898.83,1110.21 2896.87,1108.94 2895.27,1106.60"/>
    </edge>
    <edge id=":1068222046_2" function="internal">
        <lane id=":1068222046_2_0" index="0" speed="5.56" length="4.82" shape="2903.84,1109.56 2902.36,1109.36 2901.63,1108.79 2901.64,1107.87 2902.39,1106.59"/>
    </edge>
    <edge id=":1068222046_3" function="internal">
        <lane id=":1068222046_3_0" index="0" speed="5.56" length="5.01" shape="2898.24,1105.14 2899.01,1106.28 2899.96,1106.90 2901.09,1107.01 2902.39,1106.59"/>
    </edge>
    <edge id=":1068222046_4" function="internal">
        <lane id=":1068222046_4_0" index="0" speed="5.56" length="10.34" shape="2898.24,1105.14 2899.11,1107.84 2898.91,1110.17 2897.64,1112.12 2895.29,1113.71"/>
    </edge>
    <edge id=":1068222046_5" function="internal">
        <lane id=":1068222046_5_0" index="0" speed="5.56" length="4.82" shape="2898.24,1105.14 2898.04,1106.62 2897.48,1107.35 2896.56,1107.35 2895.27,1106.60"/>
    </edge>
    <edge id=":1068222046_6" function="internal">
        <lane id=":1068222046_6_0" index="0" speed="5.56" length="9.50" shape="2893.85,1110.74 2902.39,1106.59"/>
    </edge>
    <edge id=":1068222046_7" function="internal">
        <lane id=":1068222046_7_0" index="0" speed="5.56" length="5.00" shape="2893.85,1110.74 2894.99,1109.98 2895.60,1109.03 2895.70,1107.90 2895.27,1106.60"/>
    </edge>
    <edge id=":1068222046_8" function="internal">
        <lane id=":1068222046_8_0" index="0" speed="5.56" length="4.82" shape="2893.85,1110.74 2895.32,1110.94 2896.06,1111.51 2896.05,1112.43 2895.29,1113.71"/>
    </edge>
    <edge id=":1071537829_0" function="internal">
        <lane id=":1071537829_0_0" index="0" speed="5.56" length="9.71" shape="2146.17,1327.11 2142.18,1318.26"/>
    </edge>
    <edge id=":1071537829_1" function="internal">
        <lane id=":1071537829_1_0" index="0" speed="5.56" length="10.47" shape="2146.17,1327.11 2145.31,1324.36 2145.56,1322.02 2146.90,1320.09 2149.35,1318.56"/>
    </edge>
    <edge id=":1071537829_2" function="internal">
        <lane id=":1071537829_2_0" index="0" speed="5.56" length="4.82" shape="2146.17,1327.11 2146.38,1325.64 2146.95,1324.91 2147.87,1324.93 2149.15,1325.69"/>
    </edge>
    <edge id=":1071537829_3" function="internal">
        <lane id=":1071537829_3_0" index="0" speed="5.56" length="5.04" shape="2150.68,1321.58 2149.50,1322.32 2148.85,1323.25 2148.73,1324.37 2149.15,1325.69"/>
    </edge>
    <edge id=":1071537829_4" function="internal">
        <lane id=":1071537829_4_0" index="0" speed="5.56" length="10.43" shape="2150.68,1321.58 2147.91,1322.36 2145.57,1322.07 2143.66,1320.70 2142.18,1318.26"/>
    </edge>
    <edge id=":1071537829_5" function="internal">
        <lane id=":1071537829_5_0" index="0" speed="5.56" length="4.82" shape="2150.68,1321.58 2149.21,1321.33 2148.50,1320.74 2148.55,1319.82 2149.35,1318.56"/>
    </edge>
    <edge id=":1071537829_6" function="internal">
        <lane id=":1071537829_6_0" index="0" speed="5.56" length="5.06" shape="2145.22,1316.97 2145.93,1318.15 2146.86,1318.80 2148.00,1318.94 2149.35,1318.56"/>
    </edge>
    <edge id=":1071537829_7" function="internal">
        <lane id=":1071537829_7_0" index="0" speed="5.56" length="9.57" shape="2145.22,1316.97 2149.15,1325.69"/>
    </edge>
    <edge id=":1071537829_8" function="internal">
        <lane id=":1071537829_8_0" index="0" speed="5.56" length="4.82" shape="2145.22,1316.97 2144.94,1318.43 2144.35,1319.13 2143.43,1319.08 2142.18,1318.26"/>
    </edge>
    <edge id=":1071537830_0" function="internal">
        <lane id=":1071537830_0_0" index="0" speed="5.56" length="0.10" shape="2358.04,1297.15 2358.04,1297.19"/>
    </edge>
    <edge id=":1071537830_1" function="internal">
        <lane id=":1071537830_1_0" index="0" speed="5.56" length="2.41" shape="2358.04,1297.15 2357.14,1298.33 2356.30,1298.70"/>
    </edge>
    <edge id=":1071537830_4" function="internal">
        <lane id=":1071537830_4_0" index="0" speed="5.56" length="2.41" shape="2356.30,1298.70 2355.50,1298.24 2354.74,1296.95"/>
    </edge>
    <edge id=":1071537830_2" function="internal">
        <lane id=":1071537830_2_0" index="0" speed="5.56" length="0.10" shape="2354.74,1296.99 2354.74,1296.95"/>
    </edge>
    <edge id=":1071537830_3" function="internal">
        <lane id=":1071537830_3_0" index="0" speed="5.56" length="2.41" shape="2354.74,1296.99 2355.64,1295.80 2356.49,1295.44"/>
    </edge>
    <edge id=":1071537830_5" function="internal">
        <lane id=":1071537830_5_0" index="0" speed="5.56" length="2.41" shape="2356.49,1295.44 2357.29,1295.90 2358.04,1297.19"/>
    </edge>
    <edge id=":1071537831_0" function="internal">
        <lane id=":1071537831_0_0" index="0" speed="5.56" length="9.58" shape="2291.81,1402.17 2283.11,1406.18"/>
    </edge>
    <edge id=":1071537831_1" function="internal">
        <lane id=":1071537831_1_0" index="0" speed="5.56" length="10.43" shape="2291.81,1402.17 2289.07,1403.01 2286.73,1402.76 2284.80,1401.43 2283.28,1399.00"/>
    </edge>
    <edge id=":1071537831_2" function="internal">
        <lane id=":1071537831_2_0" index="0" speed="5.56" length="4.82" shape="2291.81,1402.17 2290.34,1401.95 2289.61,1401.38 2289.63,1400.46 2290.40,1399.18"/>
    </edge>
    <edge id=":1071537831_3" function="internal">
        <lane id=":1071537831_3_0" index="0" speed="5.56" length="5.03" shape="2286.29,1397.66 2287.02,1398.82 2287.96,1399.47 2289.08,1399.59 2290.40,1399.18"/>
    </edge>
    <edge id=":1071537831_4" function="internal">
        <lane id=":1071537831_4_0" index="0" speed="5.56" length="10.36" shape="2286.29,1397.66 2287.08,1400.40 2286.81,1402.74 2285.49,1404.67 2283.11,1406.18"/>
    </edge>
    <edge id=":1071537831_5" function="internal">
        <lane id=":1071537831_5_0" index="0" speed="5.56" length="4.82" shape="2286.29,1397.66 2286.04,1399.12 2285.45,1399.84 2284.53,1399.79 2283.28,1399.00"/>
    </edge>
    <edge id=":1071537831_6" function="internal">
        <lane id=":1071537831_6_0" index="0" speed="5.56" length="5.06" shape="2281.75,1403.18 2282.91,1402.44 2283.54,1401.50 2283.67,1400.35 2283.28,1399.00"/>
    </edge>
    <edge id=":1071537831_7" function="internal">
        <lane id=":1071537831_7_0" index="0" speed="5.56" length="9.53" shape="2281.75,1403.18 2290.40,1399.18"/>
    </edge>
    <edge id=":1071537831_8" function="internal">
        <lane id=":1071537831_8_0" index="0" speed="5.56" length="4.82" shape="2281.75,1403.18 2283.22,1403.42 2283.94,1404.00 2283.90,1404.92 2283.11,1406.18"/>
    </edge>
    <edge id=":1071537832_0" function="internal">
        <lane id=":1071537832_0_0" index="0" speed="5.56" length="0.24" shape="2438.33,1321.41 2438.19,1321.21"/>
    </edge>
    <edge id=":1071537832_1" function="internal">
        <lane id=":1071537832_1_0" index="0" speed="5.56" length="2.41" shape="2438.33,1321.41 2438.42,1319.93 2438.92,1319.16"/>
    </edge>
    <edge id=":1071537832_4" function="internal">
        <lane id=":1071537832_4_0" index="0" speed="5.56" length="2.41" shape="2438.92,1319.16 2439.85,1319.10 2441.18,1319.75"/>
    </edge>
    <edge id=":1071537832_2" function="internal">
        <lane id=":1071537832_2_0" index="0" speed="5.56" length="0.74" shape="2440.76,1319.14 2441.18,1319.75"/>
    </edge>
    <edge id=":1071537832_3" function="internal">
        <lane id=":1071537832_3_0" index="0" speed="5.56" length="2.41" shape="2440.76,1319.14 2440.89,1320.62 2440.51,1321.46"/>
    </edge>
    <edge id=":1071537832_5" function="internal">
        <lane id=":1071537832_5_0" index="0" speed="5.56" length="2.41" shape="2440.51,1321.46 2439.61,1321.66 2438.19,1321.21"/>
    </edge>
    <edge id=":1071537833_0" function="internal">
        <lane id=":1071537833_0_0" index="0" speed="22.22" length="9.52" shape="2479.79,1311.32 2471.22,1315.46"/>
    </edge>
    <edge id=":1071537833_1" function="internal">
        <lane id=":1071537833_1_0" index="0" speed="13.89" length="7.01" shape="2479.79,1311.32 2477.20,1312.12 2474.88,1311.88 2473.21,1310.84"/>
    </edge>
    <edge id=":1071537833_9" function="internal">
        <lane id=":1071537833_9_0" index="0" speed="13.89" length="3.34" shape="2473.21,1310.84 2472.84,1310.61 2471.07,1308.30"/>
    </edge>
    <edge id=":1071537833_2" function="internal">
        <lane id=":1071537833_2_0" index="0" speed="22.22" length="2.41" shape="2479.79,1311.32 2478.32,1311.12 2477.58,1310.55"/>
    </edge>
    <edge id=":1071537833_10" function="internal">
        <lane id=":1071537833_10_0" index="0" speed="22.22" length="2.41" shape="2477.58,1310.55 2477.60,1309.63 2478.35,1308.35"/>
    </edge>
    <edge id=":1071537833_3" function="internal">
        <lane id=":1071537833_3_0" index="0" speed="13.89" length="5.31" shape="2473.93,1306.65 2474.86,1307.88 2475.90,1308.58 2477.07,1308.73 2478.35,1308.35"/>
    </edge>
    <edge id=":1071537833_4" function="internal">
        <lane id=":1071537833_4_0" index="0" speed="13.89" length="10.70" shape="2473.93,1306.65 2475.03,1309.40 2474.95,1311.79 2473.68,1313.81 2471.22,1315.46"/>
    </edge>
    <edge id=":1071537833_5" function="internal">
        <lane id=":1071537833_5_0" index="0" speed="5.56" length="4.82" shape="2473.93,1306.65 2473.84,1308.14 2473.33,1308.91 2472.41,1308.96 2471.07,1308.30"/>
    </edge>
    <edge id=":1071537833_6" function="internal">
        <lane id=":1071537833_6_0" index="0" speed="13.89" length="5.09" shape="2469.78,1312.49 2470.95,1311.71 2471.56,1310.74 2471.60,1309.61 2471.07,1308.30"/>
    </edge>
    <edge id=":1071537833_7" function="internal">
        <lane id=":1071537833_7_0" index="0" speed="22.22" length="9.52" shape="2469.78,1312.49 2478.35,1308.35"/>
    </edge>
    <edge id=":1071537833_8" function="internal">
        <lane id=":1071537833_8_0" index="0" speed="22.22" length="2.41" shape="2469.78,1312.49 2471.26,1312.70 2471.99,1313.26"/>
    </edge>
    <edge id=":1071537833_11" function="internal">