<flows>
    <flow id="0" from="90088565#0" to="30860728#1" begin="0" end="300" number="70"/>
    <flow id="1" from="30860753#0" to="90088573#3" begin="0" end="300" number="10"/>
    <flow id="2" from="244107342#1" to="244107342#16" begin="0" end="300" number="14"/>
    <flow id="3" from="91928200#7" to="188696885#1" begin="0" end="30" number="70"/>
    <flow id="4" from="-8969746#0" to="90088573#3" begin="0" end="300" number="7"/>
    <flow id="5" from="90088565#0" to="244107342#16" begin="0" end="300" number="7"/>
    <flow id="6" from="30860753#0" to="188696885#1" begin="0" end="300" number="5"/>
</flows>
