<?xml version="1.0" encoding="UTF-8"?>

<!-- generated on Sat Nov 16 09:31:27 2013 by SUMO netgenerate Version 0.17.1
<?xml version="1.0" encoding="UTF-8"?>

<configuration xmlns:xsi="http://www.w3.org/2001/XMLSchema-instance" xsi:noNamespaceSchemaLocation="http://sumo.sf.net/xsd/netgenerateConfiguration.xsd">

    <grid_network>
        <grid value="true"/>
        <grid.number value="2"/>
        <grid.length value="100"/>
        <grid.attach-length value="400"/>
    </grid_network>

    <output>
        <output-file value="test.net.xml"/>
    </output>

    <tls_building>
        <tls.guess value="true"/>
        <tls.yellow.time value="0"/>
    </tls_building>

    <building_defaults>
        <default.lanenumber value="2"/>
    </building_defaults>

</configuration>
-->

<net version="0.13" xmlns:xsi="http://www.w3.org/2001/XMLSchema-instance" xsi:noNamespaceSchemaLocation="http://sumo.sf.net/xsd/net_file.xsd">

    <location netOffset="0.00,0.00" convBoundary="0.00,0.00,900.00,900.00" origBoundary="0.00,0.00,900.00,900.00" projParameter="!"/>

    <edge id=":0/0_0" function="internal">
        <lane id=":0/0_0_0" index="0" speed="13.90" length="5.00" shape="395.05,408.05 394.86,406.69 394.28,405.73 393.31,405.14 391.95,404.95"/>
    </edge>
    <edge id=":0/0_1" function="internal">
        <lane id=":0/0_1_0" index="0" speed="13.90" length="16.10" shape="395.05,408.05 395.05,403.27 395.05,400.00 395.05,396.73 395.05,391.95"/>
    </edge>
    <edge id=":0/0_2" function="internal">
        <lane id=":0/0_2_0" index="0" speed="13.90" length="16.10" shape="398.35,408.05 398.35,403.27 398.35,400.00 398.35,396.73 398.35,391.95"/>
    </edge>
    <edge id=":0/0_3" function="internal">
        <lane id=":0/0_3_0" index="0" speed="13.90" length="6.80" shape="398.35,408.05 398.96,403.81 400.25,401.65"/>
    </edge>
    <edge id=":0/0_18" function="internal">
        <lane id=":0/0_18_0" index="0" speed="13.90" length="8.84" shape="400.25,401.65 400.78,400.77 403.81,398.96 408.05,398.35"/>
    </edge>
    <edge id=":0/0_4" function="internal">
        <lane id=":0/0_4_0" index="0" speed="13.90" length="2.41" shape="398.35,408.05 399.17,406.81 400.00,406.40"/>
    </edge>
    <edge id=":0/0_19" function="internal">
        <lane id=":0/0_19_0" index="0" speed="13.90" length="2.41" shape="400.00,406.40 400.82,406.81 401.65,408.05"/>
    </edge>
    <edge id=":0/0_5" function="internal">
        <lane id=":0/0_5_0" index="0" speed="13.90" length="5.00" shape="408.05,404.95 406.69,405.14 405.73,405.72 405.14,406.69 404.95,408.05"/>
    </edge>
    <edge id=":0/0_6" function="internal">
        <lane id=":0/0_6_0" index="0" speed="13.90" length="16.10" shape="408.05,401.65 403.27,401.65 400.00,401.65 396.73,401.65 391.95,401.65"/>
    </edge>
    <edge id=":0/0_7" function="internal">
        <lane id=":0/0_7_0" index="0" speed="13.90" length="3.13" shape="408.05,401.65 404.95,401.21"/>
    </edge>
    <edge id=":0/0_20" function="internal">
        <lane id=":0/0_20_0" index="0" speed="13.90" length="12.51" shape="404.95,401.21 403.81,401.04 400.77,399.22 398.96,396.19 398.35,391.95"/>
    </edge>
    <edge id=":0/0_8" function="internal">
        <lane id=":0/0_8_0" index="0" speed="13.90" length="2.41" shape="408.05,401.65 406.81,400.83 406.40,400.00"/>
    </edge>
    <edge id=":0/0_21" function="internal">
        <lane id=":0/0_21_0" index="0" speed="13.90" length="2.41" shape="406.40,400.00 406.81,399.18 408.05,398.35"/>
    </edge>
    <edge id=":0/0_9" function="internal">
        <lane id=":0/0_9_0" index="0" speed="13.90" length="5.00" shape="404.95,391.95 405.14,393.31 405.72,394.27 406.69,394.86 408.05,395.05"/>
    </edge>
    <edge id=":0/0_10" function="internal">
        <lane id=":0/0_10_0" index="0" speed="13.90" length="16.10" shape="404.95,391.95 404.95,396.73 404.95,400.00 404.95,403.27 404.95,408.05"/>
    </edge>
    <edge id=":0/0_11" function="internal">
        <lane id=":0/0_11_0" index="0" speed="13.90" length="16.10" shape="401.65,391.95 401.65,396.73 401.65,400.00 401.65,403.27 401.65,408.05"/>
    </edge>
    <edge id=":0/0_12" function="internal">
        <lane id=":0/0_12_0" index="0" speed="13.90" length="6.80" shape="401.65,391.95 401.04,396.19 399.75,398.35"/>
    </edge>
    <edge id=":0/0_22" function="internal">
        <lane id=":0/0_22_0" index="0" speed="13.90" length="8.84" shape="399.75,398.35 399.22,399.22 396.19,401.04 391.95,401.65"/>
    </edge>
    <edge id=":0/0_13" function="internal">
        <lane id=":0/0_13_0" index="0" speed="13.90" length="2.41" shape="401.65,391.95 400.83,393.19 400.00,393.60"/>
    </edge>
    <edge id=":0/0_23" function="internal">
        <lane id=":0/0_23_0" index="0" speed="13.90" length="2.41" shape="400.00,393.60 399.18,393.19 398.35,391.95"/>
    </edge>
    <edge id=":0/0_14" function="internal">
        <lane id=":0/0_14_0" index="0" speed="13.90" length="5.00" shape="391.95,395.05 393.31,394.86 394.27,394.28 394.86,393.31 395.05,391.95"/>
    </edge>
    <edge id=":0/0_15" function="internal">
        <lane id=":0/0_15_0" index="0" speed="13.90" length="16.10" shape="391.95,398.35 396.73,398.35 400.00,398.35 403.27,398.35 408.05,398.35"/>
    </edge>
    <edge id=":0/0_16" function="internal">
        <lane id=":0/0_16_0" index="0" speed="13.90" length="3.13" shape="391.95,398.35 395.05,398.79"/>
    </edge>
    <edge id=":0/0_24" function="internal">
        <lane id=":0/0_24_0" index="0" speed="13.90" length="12.51" shape="395.05,398.79 396.19,398.96 399.23,400.78 401.04,403.81 401.65,408.05"/>
    </edge>
    <edge id=":0/0_17" function="internal">
        <lane id=":0/0_17_0" index="0" speed="13.90" length="2.41" shape="391.95,398.35 393.19,399.17 393.60,400.00"/>
    </edge>
    <edge id=":0/0_25" function="internal">
        <lane id=":0/0_25_0" index="0" speed="13.90" length="2.41" shape="393.60,400.00 393.19,400.82 391.95,401.65"/>
    </edge>
    <edge id=":0/1_0" function="internal">
        <lane id=":0/1_0_0" index="0" speed="13.90" length="5.00" shape="395.05,508.05 394.86,506.69 394.28,505.73 393.31,505.14 391.95,504.95"/>
    </edge>
    <edge id=":0/1_1" function="internal">
        <lane id=":0/1_1_0" index="0" speed="13.90" length="16.10" shape="395.05,508.05 395.05,503.27 395.05,500.00 395.05,496.73 395.05,491.95"/>
    </edge>
    <edge id=":0/1_2" function="internal">
        <lane id=":0/1_2_0" index="0" speed="13.90" length="16.10" shape="398.35,508.05 398.35,503.27 398.35,500.00 398.35,496.73 398.35,491.95"/>
    </edge>
    <edge id=":0/1_3" function="internal">
        <lane id=":0/1_3_0" index="0" speed="13.90" length="6.80" shape="398.35,508.05 398.96,503.81 400.25,501.65"/>
    </edge>
    <edge id=":0/1_18" function="internal">
        <lane id=":0/1_18_0" index="0" speed="13.90" length="8.84" shape="400.25,501.65 400.78,500.77 403.81,498.96 408.05,498.35"/>
    </edge>
    <edge id=":0/1_4" function="internal">
        <lane id=":0/1_4_0" index="0" speed="13.90" length="2.41" shape="398.35,508.05 399.17,506.81 400.00,506.40"/>
    </edge>
    <edge id=":0/1_19" function="internal">
        <lane id=":0/1_19_0" index="0" speed="13.90" length="2.41" shape="400.00,506.40 400.82,506.81 401.65,508.05"/>
    </edge>
    <edge id=":0/1_5" function="internal">
        <lane id=":0/1_5_0" index="0" speed="13.90" length="5.00" shape="408.05,504.95 406.69,505.14 405.73,505.72 405.14,506.69 404.95,508.05"/>
    </edge>
    <edge id=":0/1_6" function="internal">
        <lane id=":0/1_6_0" index="0" speed="13.90" length="16.10" shape="408.05,501.65 403.27,501.65 400.00,501.65 396.73,501.65 391.95,501.65"/>
    </edge>
    <edge id=":0/1_7" function="internal">
        <lane id=":0/1_7_0" index="0" speed="13.90" length="3.13" shape="408.05,501.65 404.95,501.21"/>
    </edge>
    <edge id=":0/1_20" function="internal">
        <lane id=":0/1_20_0" index="0" speed="13.90" length="12.51" shape="404.95,501.21 403.81,501.04 400.77,499.22 398.96,496.19 398.35,491.95"/>
    </edge>
    <edge id=":0/1_8" function="internal">
        <lane id=":0/1_8_0" index="0" speed="13.90" length="2.41" shape="408.05,501.65 406.81,500.82 406.40,500.00"/>
    </edge>
    <edge id=":0/1_21" function="internal">
        <lane id=":0/1_21_0" index="0" speed="13.90" length="2.41" shape="406.40,500.00 406.81,499.18 408.05,498.35"/>
    </edge>
    <edge id=":0/1_9" function="internal">
        <lane id=":0/1_9_0" index="0" speed="13.90" length="5.00" shape="404.95,491.95 405.14,493.31 405.72,494.27 406.69,494.86 408.05,495.05"/>
    </edge>
    <edge id=":0/1_10" function="internal">
        <lane id=":0/1_10_0" index="0" speed="13.90" length="16.10" shape="404.95,491.95 404.95,496.73 404.95,500.00 404.95,503.27 404.95,508.05"/>
    </edge>
    <edge id=":0/1_11" function="internal">
        <lane id=":0/1_11_0" index="0" speed="13.90" length="16.10" shape="401.65,491.95 401.65,496.73 401.65,500.00 401.65,503.27 401.65,508.05"/>
    </edge>
    <edge id=":0/1_12" function="internal">
        <lane id=":0/1_12_0" index="0" speed="13.90" length="6.80" shape="401.65,491.95 401.04,496.19 399.75,498.35"/>
    </edge>
    <edge id=":0/1_22" function="internal">
        <lane id=":0/1_22_0" index="0" speed="13.90" length="8.84" shape="399.75,498.35 399.22,499.23 396.19,501.04 391.95,501.65"/>
    </edge>
    <edge id=":0/1_13" function="internal">
        <lane id=":0/1_13_0" index="0" speed="13.90" length="2.41" shape="401.65,491.95 400.83,493.19 400.00,493.60"/>
    </edge>
    <edge id=":0/1_23" function="internal">
        <lane id=":0/1_23_0" index="0" speed="13.90" length="2.41" shape="400.00,493.60 399.18,493.19 398.35,491.95"/>
    </edge>
    <edge id=":0/1_14" function="internal">
        <lane id=":0/1_14_0" index="0" speed="13.90" length="5.00" shape="391.95,495.05 393.31,494.86 394.28,494.28 394.86,493.31 395.05,491.95"/>
    </edge>
    <edge id=":0/1_15" function="internal">
        <lane id=":0/1_15_0" index="0" speed="13.90" length="16.10" shape="391.95,498.35 396.73,498.35 400.00,498.35 403.27,498.35 408.05,498.35"/>
    </edge>
    <edge id=":0/1_16" function="internal">
        <lane id=":0/1_16_0" index="0" speed="13.90" length="3.13" shape="391.95,498.35 395.05,498.79"/>
    </edge>
    <edge id=":0/1_24" function="internal">
        <lane id=":0/1_24_0" index="0" speed="13.90" length="12.51" shape="395.05,498.79 396.19,498.96 399.22,500.78 401.04,503.81 401.65,508.05"/>
    </edge>
    <edge id=":0/1_17" function="internal">
        <lane id=":0/1_17_0" index="0" speed="13.90" length="2.41" shape="391.95,498.35 393.19,499.18 393.60,500.00"/>
    </edge>
    <edge id=":0/1_25" function="internal">
        <lane id=":0/1_25_0" index="0" speed="13.90" length="2.41" shape="393.60,500.00 393.19,500.82 391.95,501.65"/>
    </edge>
    <edge id=":1/0_0" function="internal">
        <lane id=":1/0_0_0" index="0" speed="13.90" length="5.00" shape="495.05,408.05 494.86,406.69 494.28,405.73 493.31,405.14 491.95,404.95"/>
    </edge>
    <edge id=":1/0_1" function="internal">
        <lane id=":1/0_1_0" index="0" speed="13.90" length="16.10" shape="495.05,408.05 495.05,403.27 495.05,400.00 495.05,396.73 495.05,391.95"/>
    </edge>
    <edge id=":1/0_2" function="internal">
        <lane id=":1/0_2_0" index="0" speed="13.90" length="16.10" shape="498.35,408.05 498.35,403.27 498.35,400.00 498.35,396.73 498.35,391.95"/>
    </edge>
    <edge id=":1/0_3" function="internal">
        <lane id=":1/0_3_0" index="0" speed="13.90" length="6.80" shape="498.35,408.05 498.96,403.81 500.25,401.65"/>
    </edge>
    <edge id=":1/0_18" function="internal">
        <lane id=":1/0_18_0" index="0" speed="13.90" length="8.84" shape="500.25,401.65 500.78,400.77 503.81,398.96 508.05,398.35"/>
    </edge>
    <edge id=":1/0_4" function="internal">
        <lane id=":1/0_4_0" index="0" speed="13.90" length="2.41" shape="498.35,408.05 499.18,406.81 500.00,406.40"/>
    </edge>
    <edge id=":1/0_19" function="internal">
        <lane id=":1/0_19_0" index="0" speed="13.90" length="2.41" shape="500.00,406.40 500.82,406.81 501.65,408.05"/>
    </edge>
    <edge id=":1/0_5" function="internal">
        <lane id=":1/0_5_0" index="0" speed="13.90" length="5.00" shape="508.05,404.95 506.69,405.14 505.73,405.72 505.14,406.69 504.95,408.05"/>
    </edge>
    <edge id=":1/0_6" function="internal">
        <lane id=":1/0_6_0" index="0" speed="13.90" length="16.10" shape="508.05,401.65 503.27,401.65 500.00,401.65 496.73,401.65 491.95,401.65"/>
    </edge>
    <edge id=":1/0_7" function="internal">
        <lane id=":1/0_7_0" index="0" speed="13.90" length="3.13" shape="508.05,401.65 504.95,401.21"/>
    </edge>
    <edge id=":1/0_20" function="internal">
        <lane id=":1/0_20_0" index="0" speed="13.90" length="12.51" shape="504.95,401.21 503.81,401.04 500.78,399.22 498.96,396.19 498.35,391.95"/>
    </edge>
    <edge id=":1/0_8" function="internal">
        <lane id=":1/0_8_0" index="0" speed="13.90" length="2.41" shape="508.05,401.65 506.81,400.83 506.40,400.00"/>
    </edge>
    <edge id=":1/0_21" function="internal">
        <lane id=":1/0_21_0" index="0" speed="13.90" length="2.41" shape="506.40,400.00 506.81,399.18 508.05,398.35"/>
    </edge>
    <edge id=":1/0_9" function="internal">
        <lane id=":1/0_9_0" index="0" speed="13.90" length="5.00" shape="504.95,391.95 505.14,393.31 505.72,394.27 506.69,394.86 508.05,395.05"/>
    </edge>
    <edge id=":1/0_10" function="internal">
        <lane id=":1/0_10_0" index="0" speed="13.90" length="16.10" shape="504.95,391.95 504.95,396.73 504.95,400.00 504.95,403.27 504.95,408.05"/>
    </edge>
    <edge id=":1/0_11" function="internal">
        <lane id=":1/0_11_0" index="0" speed="13.90" length="16.10" shape="501.65,391.95 501.65,396.73 501.65,400.00 501.65,403.27 501.65,408.05"/>
    </edge>
    <edge id=":1/0_12" function="internal">
        <lane id=":1/0_12_0" index="0" speed="13.90" length="6.80" shape="501.65,391.95 501.04,396.19 499.75,398.35"/>
    </edge>
    <edge id=":1/0_22" function="internal">
        <lane id=":1/0_22_0" index="0" speed="13.90" length="8.84" shape="499.75,398.35 499.22,399.23 496.19,401.04 491.95,401.65"/>
    </edge>
    <edge id=":1/0_13" function="internal">
        <lane id=":1/0_13_0" index="0" speed="13.90" length="2.41" shape="501.65,391.95 500.82,393.19 500.00,393.60"/>
    </edge>
    <edge id=":1/0_23" function="internal">
        <lane id=":1/0_23_0" index="0" speed="13.90" length="2.41" shape="500.00,393.60 499.18,393.19 498.35,391.95"/>
    </edge>
    <edge id=":1/0_14" function="internal">
        <lane id=":1/0_14_0" index="0" speed="13.90" length="5.00" shape="491.95,395.05 493.31,394.86 494.27,394.28 494.86,393.31 495.05,391.95"/>
    </edge>
    <edge id=":1/0_15" function="internal">
        <lane id=":1/0_15_0" index="0" speed="13.90" length="16.10" shape="491.95,398.35 496.73,398.35 500.00,398.35 503.27,398.35 508.05,398.35"/>
    </edge>
    <edge id=":1/0_16" function="internal">
        <lane id=":1/0_16_0" index="0" speed="13.90" length="3.13" shape="491.95,398.35 495.05,398.79"/>
    </edge>
    <edge id=":1/0_24" function="internal">
        <lane id=":1/0_24_0" index="0" speed="13.90" length="12.51" shape="495.05,398.79 496.19,398.96 499.23,400.78 501.04,403.81 501.65,408.05"/>
    </edge>
    <edge id=":1/0_17" function="internal">
        <lane id=":1/0_17_0" index="0" speed="13.90" length="2.41" shape="491.95,398.35 493.19,399.17 493.60,400.00"/>
    </edge>
    <edge id=":1/0_25" function="internal">
        <lane id=":1/0_25_0" index="0" speed="13.90" length="2.41" shape="493.60,400.00 493.19,400.82 491.95,401.65"/>
    </edge>
    <edge id=":1/1_0" function="internal">
        <lane id=":1/1_0_0" index="0" speed="13.90" length="5.00" shape="495.05,508.05 494.86,506.69 494.28,505.72 493.31,505.14 491.95,504.95"/>
    </edge>
    <edge id=":1/1_1" function="internal">
        <lane id=":1/1_1_0" index="0" speed="13.90" length="16.10" shape="495.05,508.05 495.05,503.27 495.05,500.00 495.05,496.73 495.05,491.95"/>
    </edge>
    <edge id=":1/1_2" function="internal">
        <lane id=":1/1_2_0" index="0" speed="13.90" length="16.10" shape="498.35,508.05 498.35,503.27 498.35,500.00 498.35,496.73 498.35,491.95"/>
    </edge>
    <edge id=":1/1_3" function="internal">
        <lane id=":1/1_3_0" index="0" speed="13.90" length="6.80" shape="498.35,508.05 498.96,503.81 500.25,501.65"/>
    </edge>
    <edge id=":1/1_18" function="internal">
        <lane id=":1/1_18_0" index="0" speed="13.90" length="8.84" shape="500.25,501.65 500.78,500.78 503.81,498.96 508.05,498.35"/>
    </edge>
    <edge id=":1/1_4" function="internal">
        <lane id=":1/1_4_0" index="0" speed="13.90" length="2.41" shape="498.35,508.05 499.18,506.81 500.00,506.40"/>
    </edge>
    <edge id=":1/1_19" function="internal">
        <lane id=":1/1_19_0" index="0" speed="13.90" length="2.41" shape="500.00,506.40 500.82,506.81 501.65,508.05"/>
    </edge>
    <edge id=":1/1_5" function="internal">
        <lane id=":1/1_5_0" index="0" speed="13.90" length="5.00" shape="508.05,504.95 506.69,505.14 505.73,505.72 505.14,506.69 504.95,508.05"/>
    </edge>
    <edge id=":1/1_6" function="internal">
        <lane id=":1/1_6_0" index="0" speed="13.90" length="16.10" shape="508.05,501.65 503.27,501.65 500.00,501.65 496.73,501.65 491.95,501.65"/>
    </edge>
    <edge id=":1/1_7" function="internal">
        <lane id=":1/1_7_0" index="0" speed="13.90" length="3.13" shape="508.05,501.65 504.95,501.21"/>
    </edge>
    <edge id=":1/1_20" function="internal">
        <lane id=":1/1_20_0" index="0" speed="13.90" length="12.51" shape="504.95,501.21 503.81,501.04 500.77,499.22 498.96,496.19 498.35,491.95"/>
    </edge>
    <edge id=":1/1_8" function="internal">
        <lane id=":1/1_8_0" index="0" speed="13.90" length="2.41" shape="508.05,501.65 506.81,500.82 506.40,500.00"/>
    </edge>
    <edge id=":1/1_21" function="internal">
        <lane id=":1/1_21_0" index="0" speed="13.90" length="2.41" shape="506.40,500.00 506.81,499.18 508.05,498.35"/>
    </edge>
    <edge id=":1/1_9" function="internal">
        <lane id=":1/1_9_0" index="0" speed="13.90" length="5.00" shape="504.95,491.95 505.14,493.31 505.72,494.27 506.69,494.86 508.05,495.05"/>
    </edge>
    <edge id=":1/1_10" function="internal">
        <lane id=":1/1_10_0" index="0" speed="13.90" length="16.10" shape="504.95,491.95 504.95,496.73 504.95,500.00 504.95,503.27 504.95,508.05"/>
    </edge>
    <edge id=":1/1_11" function="internal">
        <lane id=":1/1_11_0" index="0" speed="13.90" length="16.10" shape="501.65,491.95 501.65,496.73 501.65,500.00 501.65,503.27 501.65,508.05"/>
    </edge>
    <edge id=":1/1_12" function="internal">
        <lane id=":1/1_12_0" index="0" speed="13.90" length="6.80" shape="501.65,491.95 501.04,496.19 499.75,498.35"/>
    </edge>
    <edge id=":1/1_22" function="internal">
        <lane id=":1/1_22_0" index="0" speed="13.90" length="8.84" shape="499.75,498.35 499.22,499.23 496.19,501.04 491.95,501.65"/>
    </edge>
    <edge id=":1/1_13" function="internal">
        <lane id=":1/1_13_0" index="0" speed="13.90" length="2.41" shape="501.65,491.95 500.82,493.19 500.00,493.60"/>
    </edge>
    <edge id=":1/1_23" function="internal">
        <lane id=":1/1_23_0" index="0" speed="13.90" length="2.41" shape="500.00,493.60 499.18,493.19 498.35,491.95"/>
    </edge>
    <edge id=":1/1_14" function="internal">
        <lane id=":1/1_14_0" index="0" speed="13.90" length="5.00" shape="491.95,495.05 493.31,494.86 494.27,494.28 494.86,493.31 495.05,491.95"/>
    </edge>
    <edge id=":1/1_15" function="internal">
        <lane id=":1/1_15_0" index="0" speed="13.90" length="16.10" shape="491.95,498.35 496.73,498.35 500.00,498.35 503.27,498.35 508.05,498.35"/>
    </edge>
    <edge id=":1/1_16" function="internal">
        <lane id=":1/1_16_0" index="0" speed="13.90" length="3.13" shape="491.95,498.35 495.05,498.79"/>
    </edge>
    <edge id=":1/1_24" function="internal">
        <lane id=":1/1_24_0" index="0" speed="13.90" length="12.51" shape="495.05,498.79 496.19,498.96 499.23,500.78 501.04,503.81 501.65,508.05"/>
    </edge>
    <edge id=":1/1_17" function="internal">
        <lane id=":1/1_17_0" index="0" speed="13.90" length="2.41" shape="491.95,498.35 493.19,499.18 493.60,500.00"/>
    </edge>
    <edge id=":1/1_25" function="internal">
        <lane id=":1/1_25_0" index="0" speed="13.90" length="2.41" shape="493.60,500.00 493.19,500.82 491.95,501.65"/>
    </edge>
    <edge id=":bottom0_0" function="internal">
        <lane id=":bottom0_0_0" index="0" speed="13.90" length="4.82" shape="398.35,0.00 399.17,-1.24 400.00,-1.65 400.82,-1.24 401.65,0.00"/>
    </edge>
    <edge id=":bottom1_0" function="internal">
        <lane id=":bottom1_0_0" index="0" speed="13.90" length="4.82" shape="498.35,0.00 499.18,-1.24 500.00,-1.65 500.82,-1.24 501.65,0.00"/>
    </edge>
    <edge id=":left0_0" function="internal">
        <lane id=":left0_0_0" index="0" speed="13.90" length="4.82" shape="0.00,401.65 -1.24,400.83 -1.65,400.00 -1.24,399.18 0.00,398.35"/>
    </edge>
    <edge id=":left1_0" function="internal">
        <lane id=":left1_0_0" index="0" speed="13.90" length="4.82" shape="0.00,501.65 -1.24,500.82 -1.65,500.00 -1.24,499.18 0.00,498.35"/>
    </edge>
    <edge id=":right0_0" function="internal">
        <lane id=":right0_0_0" index="0" speed="13.90" length="4.82" shape="900.00,398.35 901.24,399.17 901.65,400.00 901.24,400.82 900.00,401.65"/>
    </edge>
    <edge id=":right1_0" function="internal">
        <lane id=":right1_0_0" index="0" speed="13.90" length="4.82" shape="900.00,498.35 901.24,499.18 901.65,500.00 901.24,500.82 900.00,501.65"/>
    </edge>
    <edge id=":top0_0" function="internal">
        <lane id=":top0_0_0" index="0" speed="13.90" length="4.82" shape="401.65,900.00 400.83,901.24 400.00,901.65 399.18,901.24 398.35,900.00"/>
    </edge>
    <edge id=":top1_0" function="internal">
        <lane id=":top1_0_0" index="0" speed="13.90" length="4.82" shape="501.65,900.00 500.82,901.24 500.00,901.65 499.18,901.24 498.35,900.00"/>
    </edge>

    <edge id="0/0to0/1" from="0/0" to="0/1" priority="-1">
        <lane id="0/0to0/1_0" index="0" speed="13.90" length="83.90" shape="404.95,408.05 404.95,491.95"/>
        <lane id="0/0to0/1_1" index="1" speed="13.90" length="83.90" shape="401.65,408.05 401.65,491.95"/>
    </edge>
    <edge id="0/0to1/0" from="0/0" to="1/0" priority="-1">
        <lane id="0/0to1/0_0" index="0" speed="13.90" length="83.90" shape="408.05,395.05 491.95,395.05"/>
        <lane id="0/0to1/0_1" index="1" speed="13.90" length="83.90" shape="408.05,398.35 491.95,398.35"/>
    </edge>
    <edge id="0/0tobottom0" from="0/0" to="bottom0" priority="-1">
        <lane id="0/0tobottom0_0" index="0" speed="13.90" length="391.95" shape="395.05,391.95 395.05,0.00"/>
        <lane id="0/0tobottom0_1" index="1" speed="13.90" length="391.95" shape="398.35,391.95 398.35,0.00"/>
    </edge>
    <edge id="0/0toleft0" from="0/0" to="left0" priority="-1">
        <lane id="0/0toleft0_0" index="0" speed="13.90" length="391.95" shape="391.95,404.95 0.00,404.95"/>
        <lane id="0/0toleft0_1" index="1" speed="13.90" length="391.95" shape="391.95,401.65 0.00,401.65"/>
    </edge>
    <edge id="0/1to0/0" from="0/1" to="0/0" priority="-1">
        <lane id="0/1to0/0_0" index="0" speed="13.90" length="83.90" shape="395.05,491.95 395.05,408.05"/>
        <lane id="0/1to0/0_1" index="1" speed="13.90" length="83.90" shape="398.35,491.95 398.35,408.05"/>
    </edge>
    <edge id="0/1to1/1" from="0/1" to="1/1" priority="-1">
        <lane id="0/1to1/1_0" index="0" speed="13.90" length="83.90" shape="408.05,495.05 491.95,495.05"/>
        <lane id="0/1to1/1_1" index="1" speed="13.90" length="83.90" shape="408.05,498.35 491.95,498.35"/>
    </edge>
    <edge id="0/1toleft1" from="0/1" to="left1" priority="-1">
        <lane id="0/1toleft1_0" index="0" speed="13.90" length="391.95" shape="391.95,504.95 0.00,504.95"/>
        <lane id="0/1toleft1_1" index="1" speed="13.90" length="391.95" shape="391.95,501.65 0.00,501.65"/>
    </edge>
    <edge id="0/1totop0" from="0/1" to="top0" priority="-1">
        <lane id="0/1totop0_0" index="0" speed="13.90" length="391.95" shape="404.95,508.05 404.95,900.00"/>
        <lane id="0/1totop0_1" index="1" speed="13.90" length="391.95" shape="401.65,508.05 401.65,900.00"/>
    </edge>
    <edge id="1/0to0/0" from="1/0" to="0/0" priority="-1">
        <lane id="1/0to0/0_0" index="0" speed="13.90" length="83.90" shape="491.95,404.95 408.05,404.95"/>
        <lane id="1/0to0/0_1" index="1" speed="13.90" length="83.90" shape="491.95,401.65 408.05,401.65"/>
    </edge>
    <edge id="1/0to1/1" from="1/0" to="1/1" priority="-1">
        <lane id="1/0to1/1_0" index="0" speed="13.90" length="83.90" shape="504.95,408.05 504.95,491.95"/>
        <lane id="1/0to1/1_1" index="1" speed="13.90" length="83.90" shape="501.65,408.05 501.65,491.95"/>
    </edge>
    <edge id="1/0tobottom1" from="1/0" to="bottom1" priority="-1">
        <lane id="1/0tobottom1_0" index="0" speed="13.90" length="391.95" shape="495.05,391.95 495.05,0.00"/>
        <lane id="1/0tobottom1_1" index="1" speed="13.90" length="391.95" shape="498.35,391.95 498.35,0.00"/>
    </edge>
    <edge id="1/0toright0" from="1/0" to="right0" priority="-1">
        <lane id="1/0toright0_0" index="0" speed="13.90" length="391.95" shape="508.05,395.05 900.00,395.05"/>
        <lane id="1/0toright0_1" index="1" speed="13.90" length="391.95" shape="508.05,398.35 900.00,398.35"/>
    </edge>
    <edge id="1/1to0/1" from="1/1" to="0/1" priority="-1">
        <lane id="1/1to0/1_0" index="0" speed="13.90" length="83.90" shape="491.95,504.95 408.05,504.95"/>
        <lane id="1/1to0/1_1" index="1" speed="13.90" length="83.90" shape="491.95,501.65 408.05,501.65"/>
    </edge>
    <edge id="1/1to1/0" from="1/1" to="1/0" priority="-1">
        <lane id="1/1to1/0_0" index="0" speed="13.90" length="83.90" shape="495.05,491.95 495.05,408.05"/>
        <lane id="1/1to1/0_1" index="1" speed="13.90" length="83.90" shape="498.35,491.95 498.35,408.05"/>
    </edge>
    <edge id="1/1toright1" from="1/1" to="right1" priority="-1">
        <lane id="1/1toright1_0" index="0" speed="13.90" length="391.95" shape="508.05,495.05 900.00,495.05"/>
        <lane id="1/1toright1_1" index="1" speed="13.90" length="391.95" shape="508.05,498.35 900.00,498.35"/>
    </edge>
    <edge id="1/1totop1" from="1/1" to="top1" priority="-1">
        <lane id="1/1totop1_0" index="0" speed="13.90" length="391.95" shape="504.95,508.05 504.95,900.00"/>
        <lane id="1/1totop1_1" index="1" speed="13.90" length="391.95" shape="501.65,508.05 501.65,900.00"/>
    </edge>
    <edge id="bottom0to0/0" from="bottom0" to="0/0" priority="-1">
        <lane id="bottom0to0/0_0" index="0" speed="13.90" length="391.95" shape="404.95,0.00 404.95,391.95"/>
        <lane id="bottom0to0/0_1" index="1" speed="13.90" length="391.95" shape="401.65,0.00 401.65,391.95"/>
    </edge>
    <edge id="bottom1to1/0" from="bottom1" to="1/0" priority="-1">
        <lane id="bottom1to1/0_0" index="0" speed="13.90" length="391.95" shape="504.95,0.00 504.95,391.95"/>
        <lane id="bottom1to1/0_1" index="1" speed="13.90" length="391.95" shape="501.65,0.00 501.65,391.95"/>
    </edge>
    <edge id="left0to0/0" from="left0" to="0/0" priority="-1">
        <lane id="left0to0/0_0" index="0" speed="13.90" length="391.95" shape="0.00,395.05 391.95,395.05"/>
        <lane id="left0to0/0_1" index="1" speed="13.90" length="391.95" shape="0.00,398.35 391.95,398.35"/>
    </edge>
    <edge id="left1to0/1" from="left1" to="0/1" priority="-1">
        <lane id="left1to0/1_0" index="0" speed="13.90" length="391.95" shape="0.00,495.05 391.95,495.05"/>
        <lane id="left1to0/1_1" index="1" speed="13.90" length="391.95" shape="0.00,498.35 391.95,498.35"/>
    </edge>
    <edge id="right0to1/0" from="right0" to="1/0" priority="-1">
        <lane id="right0to1/0_0" index="0" speed="13.90" length="391.95" shape="900.00,404.95 508.05,404.95"/>
        <lane id="right0to1/0_1" index="1" speed="13.90" length="391.95" shape="900.00,401.65 508.05,401.65"/>
    </edge>
    <edge id="right1to1/1" from="right1" to="1/1" priority="-1">
        <lane id="right1to1/1_0" index="0" speed="13.90" length="391.95" shape="900.00,504.95 508.05,504.95"/>
        <lane id="right1to1/1_1" index="1" speed="13.90" length="391.95" shape="900.00,501.65 508.05,501.65"/>
    </edge>
    <edge id="top0to0/1" from="top0" to="0/1" priority="-1">
        <lane id="top0to0/1_0" index="0" speed="13.90" length="391.95" shape="395.05,900.00 395.05,508.05"/>
        <lane id="top0to0/1_1" index="1" speed="13.90" length="391.95" shape="398.35,900.00 398.35,508.05"/>
    </edge>
    <edge id="top1to1/1" from="top1" to="1/1" priority="-1">
        <lane id="top1to1/1_0" index="0" speed="13.90" length="391.95" shape="495.05,900.00 495.05,508.05"/>
        <lane id="top1to1/1_1" index="1" speed="13.90" length="391.95" shape="498.35,900.00 498.35,508.05"/>
    </edge>

    <tlLogic id="0/0" type="static" programID="0" offset="0">
        <phase duration="31" state="GGGggrrrrGGGggrrrr"/>
        <phase duration="6" state="GGGGGrrrrGGGGGrrrr"/>
        <phase duration="31" state="rrrrrGGggrrrrrGGgg"/>
        <phase duration="6" state="rrrrrGGGGrrrrrGGGG"/>
    </tlLogic>
    <tlLogic id="0/1" type="static" programID="0" offset="0">
        <phase duration="31" state="GGGggrrrrGGGggrrrr"/>
        <phase duration="6" state="GGGGGrrrrGGGGGrrrr"/>
        <phase duration="31" state="rrrrrGGggrrrrrGGgg"/>
        <phase duration="6" state="rrrrrGGGGrrrrrGGGG"/>
    </tlLogic>
    <tlLogic id="1/0" type="static" programID="0" offset="0">
        <phase duration="31" state="GGGggrrrrGGGggrrrr"/>
        <phase duration="6" state="GGGGGrrrrGGGGGrrrr"/>