<flows>
    <flow id="0" from="left0to0/0" to="1/1toright1" begin="0" end="300" number="400"/>
</flows>
