<flows>
    <flow id="0" from="left0to0/0" to="right1to1/1" begin="0" end="1000" number="200"/>
</flows>
