<?xml version="1.0" encoding="UTF-8"?>

<!-- generated on Tue Nov 12 01:49:17 2013 by SUMO duarouter Version 0.17.1
<?xml version="1.0" encoding="UTF-8"?>

<configuration xmlns:xsi="http://www.w3.org/2001/XMLSchema-instance" xsi:noNamespaceSchemaLocation="http://sumo.sf.net/xsd/duarouterConfiguration.xsd">

    <input>
        <net-file value="test.net.xml"/>
        <trip-files value="test.flow.xml"/>
    </input>

    <output>
        <output-file value="test.rou.xml"/>
    </output>

</configuration>
-->

<routes xmlns:xsi="http://www.w3.org/2001/XMLSchema-instance" xsi:noNamespaceSchemaLocation="http://sumo.sf.net/xsd/routes_file.xsd">
    <vehicle id="0.0" depart="0.00">
        <route edges="left0to0/0 0/0to0/1 0/1to1/1 1/1toright1 right1to1/1"/>
    </vehicle>
    <vehicle id="0.1" depart="5.00">
        <route edges="left0to0/0 0/0to0/1 0/1to1/1 1/1toright1 right1to1/1"/>
    </vehicle>
    <vehicle id="0.2" depart="10.00">
        <route edges="left0to0/0 0/0to0/1 0/1to1/1 1/1toright1 right1to1/1"/>
    </vehicle>
    <vehicle id="0.3" depart="15.00">
        <route edges="left0to0/0 0/0to0/1 0/1to1/1 1/1toright1 right1to1/1"/>
    </vehicle>
    <vehicle id="0.4" depart="20.00">
        <route edges="left0to0/0 0/0to0/1 0/1to1/1 1/1toright1 right1to1/1"/>
    </vehicle>
    <vehicle id="0.5" depart="25.00">
        <route edges="left0to0/0 0/0to0/1 0/1to1/1 1/1toright1 right1to1/1"/>
    </vehicle>
    <vehicle id="0.6" depart="30.00">
        <route edges="left0to0/0 0/0to0/1 0/1to1/1 1/1toright1 right1to1/1"/>
    </vehicle>
    <vehicle id="0.7" depart="35.00">
        <route edges="left0to0/0 0/0to0/1 0/1to1/1 1/1toright1 right1to1/1"/>
    </vehicle>
    <vehicle id="0.8" depart="40.00">
        <route edges="left0to0/0 0/0to0/1 0/1to1/1 1/1toright1 right1to1/1"/>
    </vehicle>
    <vehicle id="0.9" depart="45.00">
        <route edges="left0to0/0 0/0to0/1 0/1to1/1 1/1toright1 right1to1/1"/>
    </vehicle>
    <vehicle id="0.10" depart="50.00">
        <route edges="left0to0/0 0/0to0/1 0/1to1/1 1/1toright1 right1to1/1"/>
    </vehicle>
    <vehicle id="0.11" depart="55.00">
        <route edges="left0to0/0 0/0to0/1 0/1to1/1 1/1toright1 right1to1/1"/>
    </vehicle>
    <vehicle id="0.12" depart="60.00">
        <route edges="left0to0/0 0/0to0/1 0/1to1/1 1/1toright1 right1to1/1"/>
    </vehicle>
    <vehicle id="0.13" depart="65.00">
        <route edges="left0to0/0 0/0to0/1 0/1to1/1 1/1toright1 right1to1/1"/>
    </vehicle>
    <vehicle id="0.14" depart="70.00">
        <route edges="left0to0/0 0/0to0/1 0/1to1/1 1/1toright1 right1to1/1"/>
    </vehicle>
    <vehicle id="0.15" depart="75.00">
        <route edges="left0to0/0 0/0to0/1 0/1to1/1 1/1toright1 right1to1/1"/>
    </vehicle>
    <vehicle id="0.16" depart="80.00">
        <route edges="left0to0/0 0/0to0/1 0/1to1/1 1/1toright1 right1to1/1"/>
    </vehicle>
    <vehicle id="0.17" depart="85.00">
        <route edges="left0to0/0 0/0to0/1 0/1to1/1 1/1toright1 right1to1/1"/>
    </vehicle>
    <vehicle id="0.18" depart="90.00">
        <route edges="left0to0/0 0/0to0/1 0/1to1/1 1/1toright1 right1to1/1"/>
    </vehicle>
    <vehicle id="0.19" depart="95.00">
        <route edges="left0to0/0 0/0to0/1 0/1to1/1 1/1toright1 right1to1/1"/>
    </vehicle>
    <vehicle id="0.20" depart="100.00">
        <route edges="left0to0/0 0/0to0/1 0/1to1/1 1/1toright1 right1to1/1"/>
    </vehicle>
    <vehicle id="0.21" depart="105.00">
        <route edges="left0to0/0 0/0to0/1 0/1to1/1 1/1toright1 right1to1/1"/>
    </vehicle>
    <vehicle id="0.22" depart="110.00">
        <route edges="left0to0/0 0/0to0/1 0/1to1/1 1/1toright1 right1to1/1"/>
    </vehicle>
    <vehicle id="0.23" depart="115.00">
        <route edges="left0to0/0 0/0to0/1 0/1to1/1 1/1toright1 right1to1/1"/>
    </vehicle>
    <vehicle id="0.24" depart="120.00">
        <route edges="left0to0/0 0/0to0/1 0/1to1/1 1/1toright1 right1to1/1"/>
    </vehicle>
    <vehicle id="0.25" depart="125.00">
        <route edges="left0to0/0 0/0to0/1 0/1to1/1 1/1toright1 right1to1/1"/>
    </vehicle>
    <vehicle id="0.26" depart="130.00">
        <route edges="left0to0/0 0/0to0/1 0/1to1/1 1/1toright1 right1to1/1"/>
    </vehicle>
    <vehicle id="0.27" depart="135.00">
        <route edges="left0to0/0 0/0to0/1 0/1to1/1 1/1toright1 right1to1/1"/>
    </vehicle>
    <vehicle id="0.28" depart="140.00">
        <route edges="left0to0/0 0/0to0/1 0/1to1/1 1/1toright1 right1to1/1"/>
    </vehicle>
    <vehicle id="0.29" depart="145.00">
        <route edges="left0to0/0 0/0to0/1 0/1to1/1 1/1toright1 right1to1/1"/>
    </vehicle>
    <vehicle id="0.30" depart="150.00">
        <route edges="left0to0/0 0/0to0/1 0/1to1/1 1/1toright1 right1to1/1"/>
    </vehicle>
    <vehicle id="0.31" depart="155.00">
        <route edges="left0to0/0 0/0to0/1 0/1to1/1 1/1toright1 right1to1/1"/>
    </vehicle>
    <vehicle id="0.32" depart="160.00">
        <route edges="left0to0/0 0/0to0/1 0/1to1/1 1/1toright1 right1to1/1"/>
    </vehicle>
    <vehicle id="0.33" depart="165.00">
        <route edges="left0to0/0 0/0to0/1 0/1to1/1 1/1toright1 right1to1/1"/>
    </vehicle>
    <vehicle id="0.34" depart="170.00">
        <route edges="left0to0/0 0/0to0/1 0/1to1/1 1/1toright1 right1to1/1"/>
    </vehicle>
    <vehicle id="0.35" depart="175.00">
        <route edges="left0to0/0 0/0to0/1 0/1to1/1 1/1toright1 right1to1/1"/>
    </vehicle>
    <vehicle id="0.36" depart="180.00">
        <route edges="left0to0/0 0/0to0/1 0/1to1/1 1/1toright1 right1to1/1"/>
    </vehicle>
    <vehicle id="0.37" depart="185.00">
        <route edges="left0to0/0 0/0to0/1 0/1to1/1 1/1toright1 right1to1/1"/>
    </vehicle>
    <vehicle id="0.38" depart="190.00">
        <route edges="left0to0/0 0/0to0/1 0/1to1/1 1/1toright1 right1to1/1"/>
    </vehicle>
    <vehicle id="0.39" depart="195.00">
        <route edges="left0to0/0 0/0to0/1 0/1to1/1 1/1toright1 right1to1/1"/>
    </vehicle>
    <vehicle id="0.40" depart="200.00">
        <route edges="left0to0/0 0/0to0/1 0/1to1/1 1/1toright1 right1to1/1"/>
    </vehicle>
    <vehicle id="0.41" depart="205.00">
        <route edges="left0to0/0 0/0to0/1 0/1to1/1 1/1toright1 right1to1/1"/>
    </vehicle>
    <vehicle id="0.42" depart="210.00">
        <route edges="left0to0/0 0/0to0/1 0/1to1/1 1/1toright1 right1to1/1"/>
    </vehicle>
    <vehicle id="0.43" depart="215.00">
        <route edges="left0to0/0 0/0to0/1 0/1to1/1 1/1toright1 right1to1/1"/>
    </vehicle>
    <vehicle id="0.44" depart="220.00">
        <route edges="left0to0/0 0/0to0/1 0/1to1/1 1/1toright1 right1to1/1"/>
    </vehicle>
    <vehicle id="0.45" depart="225.00">
        <route edges="left0to0/0 0/0to0/1 0/1to1/1 1/1toright1 right1to1/1"/>
    </vehicle>
    <vehicle id="0.46" depart="230.00">
        <route edges="left0to0/0 0/0to0/1 0/1to1/1 1/1toright1 right1to1/1"/>
    </vehicle>
    <vehicle id="0.47" depart="235.00">
        <route edges="left0to0/0 0/0to0/1 0/1to1/1 1/1toright1 right1to1/1"/>
    </vehicle>
    <vehicle id="0.48" depart="240.00">
        <route edges="left0to0/0 0/0to0/1 0/1to1/1 1/1toright1 right1to1/1"/>
    </vehicle>
    <vehicle id="0.49" depart="245.00">
        <route edges="left0to0/0 0/0to0/1 0/1to1/1 1/1toright1 right1to1/1"/>
    </vehicle>
    <vehicle id="0.50" depart="250.00">
        <route edges="left0to0/0 0/0to0/1 0/1to1/1 1/1toright1 right1to1/1"/>
    </vehicle>
    <vehicle id="0.51" depart="255.00">
        <route edges="left0to0/0 0/0to0/1 0/1to1/1 1/1toright1 right1to1/1"/>
    </vehicle>
    <vehicle id="0.52" depart="260.00">
        <route edges="left0to0/0 0/0to0/1 0/1to1/1 1/1toright1 right1to1/1"/>
    </vehicle>
    <vehicle id="0.53" depart="265.00">
        <route edges="left0to0/0 0/0to0/1 0/1to1/1 1/1toright1 right1to1/1"/>
    </vehicle>
    <vehicle id="0.54" depart="270.00">
        <route edges="left0to0/0 0/0to0/1 0/1to1/1 1/1toright1 right1to1/1"/>
    </vehicle>
    <vehicle id="0.55" depart="275.00">
        <route edges="left0to0/0 0/0to0/1 0/1to1/1 1/1toright1 right1to1/1"/>
    </vehicle>
    <vehicle id="0.56" depart="280.00">
        <route edges="left0to0/0 0/0to0/1 0/1to1/1 1/1toright1 right1to1/1"/>
    </vehicle>
    <vehicle id="0.57" depart="285.00">
        <route edges="left0to0/0 0/0to0/1 0/1to1/1 1/1toright1 right1to1/1"/>
    </vehicle>
    <vehicle id="0.58" depart="290.00">
        <route edges="left0to0/0 0/0to0/1 0/1to1/1 1/1toright1 right1to1/1"/>
    </vehicle>
    <vehicle id="0.59" depart="295.00">
        <route edges="left0to0/0 0/0to0/1 0/1to1/1 1/1toright1 right1to1/1"/>
    </vehicle>
    <vehicle id="0.60" depart="300.00">
        <route edges="left0to0/0 0/0to0/1 0/1to1/1 1/1toright1 right1to1/1"/>
    </vehicle>
    <vehicle id="0.61" depart="305.00">
        <route edges="left0to0/0 0/0to0/1 0/1to1/1 1/1toright1 right1to1/1"/>
    </vehicle>
    <vehicle id="0.62" depart="310.00">
        <route edges="left0to0/0 0/0to0/1 0/1to1/1 1/1toright1 right1to1/1"/>
    </vehicle>
    <vehicle id="0.63" depart="315.00">
        <route edges="left0to0/0 0/0to0/1 0/1to1/1 1/1toright1 right1to1/1"/>
    </vehicle>
    <vehicle id="0.64" depart="320.00">
        <route edges="left0to0/0 0/0to0/1 0/1to1/1 1/1toright1 right1to1/1"/>
    </vehicle>
    <vehicle id="0.65" depart="325.00">
        <route edges="left0to0/0 0/0to0/1 0/1to1/1 1/1toright1 right1to1/1"/>
    </vehicle>
    <vehicle id="0.66" depart="330.00">
        <route edges="left0to0/0 0/0to0/1 0/1to1/1 1/1toright1 right1to1/1"/>
    </vehicle>
    <vehicle id="0.67" depart="335.00">
        <route edges="left0to0/0 0/0to0/1 0/1to1/1 1/1toright1 right1to1/1"/>
    </vehicle>
    <vehicle id="0.68" depart="340.00">
        <route edges="left0to0/0 0/0to0/1 0/1to1/1 1/1toright1 right1to1/1"/>
    </vehicle>
    <vehicle id="0.69" depart="345.00">
        <route edges="left0to0/0 0/0to0/1 0/1to1/1 1/1toright1 right1to1/1"/>
    </vehicle>
    <vehicle id="0.70" depart="350.00">
        <route edges="left0to0/0 0/0to0/1 0/1to1/1 1/1toright1 right1to1/1"/>
    </vehicle>
    <vehicle id="0.71" depart="355.00">
        <route edges="left0to0/0 0/0to0/1 0/1to1/1 1/1toright1 right1to1/1"/>
    </vehicle>
    <vehicle id="0.72" depart="360.00">
        <route edges="left0to0/0 0/0to0/1 0/1to1/1 1/1toright1 right1to1/1"/>
    </vehicle>
    <vehicle id="0.73" depart="365.00">
        <route edges="left0to0/0 0/0to0/1 0/1to1/1 1/1toright1 right1to1/1"/>
    </vehicle>
    <vehicle id="0.74" depart="370.00">
        <route edges="left0to0/0 0/0to0/1 0/1to1/1 1/1toright1 right1to1/1"/>
    </vehicle>
    <vehicle id="0.75" depart="375.00">
        <route edges="left0to0/0 0/0to0/1 0/1to1/1 1/1toright1 right1to1/1"/>
    </vehicle>
    <vehicle id="0.76" depart="380.00">
        <route edges="left0to0/0 0/0to0/1 0/1to1/1 1/1toright1 right1to1/1"/>
    </vehicle>
    <vehicle id="0.77" depart="385.00">
        <route edges="left0to0/0 0/0to0/1 0/1to1/1 1/1toright1 right1to1/1"/>
    </vehicle>
    <vehicle id="0.78" depart="390.00">
        <route edges="left0to0/0 0/0to0/1 0/1to1/1 1/1toright1 right1to1/1"/>
    </vehicle>
    <vehicle id="0.79" depart="395.00">
        <route edges="left0to0/0 0/0to0/1 0/1to1/1 1/1toright1 right1to1/1"/>
    </vehicle>
    <vehicle id="0.80" depart="400.00">
        <route edges="left0to0/0 0/0to0/1 0/1to1/1 1/1toright1 right1to1/1"/>
    </vehicle>
    <vehicle id="0.81" depart="405.00">
        <route edges="left0to0/0 0/0to0/1 0/1to1/1 1/1toright1 right1to1/1"/>
    </vehicle>
    <vehicle id="0.82" depart="410.00">
        <route edges="left0to0/0 0/0to0/1 0/1to1/1 1/1toright1 right1to1/1"/>
    </vehicle>
    <vehicle id="0.83" depart="415.00">
        <route edges="left0to0/0 0/0to0/1 0/1to1/1 1/1toright1 right1to1/1"/>
    </vehicle>
    <vehicle id="0.84" depart="420.00">
        <route edges="left0to0/0 0/0to0/1 0/1to1/1 1/1toright1 right1to1/1"/>
    </vehicle>
    <vehicle id="0.85" depart="425.00">
        <route edges="left0to0/0 0/0to0/1 0/1to1/1 1/1toright1 right1to1/1"/>
    </vehicle>
    <vehicle id="0.86" depart="430.00">
        <route edges="left0to0/0 0/0to0/1 0/1to1/1 1/1toright1 right1to1/1"/>
    </vehicle>
    <vehicle id="0.87" depart="435.00">
        <route edges="left0to0/0 0/0to0/1 0/1to1/1 1/1toright1 right1to1/1"/>
    </vehicle>
    <vehicle id="0.88" depart="440.00">
        <route edges="left0to0/0 0/0to0/1 0/1to1/1 1/1toright1 right1to1/1"/>
    </vehicle>
    <vehicle id="0.89" depart="445.00">
        <route edges="left0to0/0 0/0to0/1 0/1to1/1 1/1toright1 right1to1/1"/>
    </vehicle>
    <vehicle id="0.90" depart="450.00">
        <route edges="left0to0/0 0/0to0/1 0/1to1/1 1/1toright1 right1to1/1"/>
    </vehicle>
    <vehicle id="0.91" depart="455.00">
        <route edges="left0to0/0 0/0to0/1 0/1to1/1 1/1toright1 right1to1/1"/>
    </vehicle>
    <vehicle id="0.92" depart="460.00">
        <route edges="left0to0/0 0/0to0/1 0/1to1/1 1/1toright1 right1to1/1"/>
    </vehicle>
    <vehicle id="0.93" depart="465.00">
        <route edges="left0to0/0 0/0to0/1 0/1to1/1 1/1toright1 right1to1/1"/>
    </vehicle>
    <vehicle id="0.94" depart="470.00">
        <route edges="left0to0/0 0/0to0/1 0/1to1/1 1/1toright1 right1to1/1"/>
    </vehicle>
    <vehicle id="0.95" depart="475.00">
        <route edges="left0to0/0 0/0to0/1 0/1to1/1 1/1toright1 right1to1/1"/>
    </vehicle>
    <vehicle id="0.96" depart="480.00">
        <route edges="left0to0/0 0/0to0/1 0/1to1/1 1/1toright1 right1to1/1"/>
    </vehicle>
    <vehicle id="0.97" depart="485.00">
        <route edges="left0to0/0 0/0to0/1 0/1to1/1 1/1toright1 right1to1/1"/>
    </vehicle>
    <vehicle id="0.98" depart="490.00">
        <route edges="left0to0/0 0/0to0/1 0/1to1/1 1/1toright1 right1to1/1"/>
    </vehicle>
    <vehicle id="0.99" depart="495.00">
        <route edges="left0to0/0 0/0to0/1 0/1to1/1 1/1toright1 right1to1/1"/>
    </vehicle>
    <vehicle id="0.100" depart="500.00">
        <route edges="left0to0/0 0/0to0/1 0/1to1/1 1/1toright1 right1to1/1"/>
    </vehicle>
    <vehicle id="0.101" depart="505.00">
        <route edges="left0to0/0 0/0to0/1 0/1to1/1 1/1toright1 right1to1/1"/>
    </vehicle>
    <vehicle id="0.102" depart="510.00">
        <route edges="left0to0/0 0/0to0/1 0/1to1/1 1/1toright1 right1to1/1"/>
    </vehicle>
    <vehicle id="0.103" depart="515.00">
        <route edges="left0to0/0 0/0to0/1 0/1to1/1 1/1toright1 right1to1/1"/>
    </vehicle>
    <vehicle id="0.104" depart="520.00">
        <route edges="left0to0/0 0/0to0/1 0/1to1/1 1/1toright1 right1to1/1"/>
    </vehicle>
    <vehicle id="0.105" depart="525.00">
        <route edges="left0to0/0 0/0to0/1 0/1to1/1 1/1toright1 right1to1/1"/>
    </vehicle>
    <vehicle id="0.106" depart="530.00">
        <route edges="left0to0/0 0/0to0/1 0/1to1/1 1/1toright1 right1to1/1"/>
    </vehicle>
    <vehicle id="0.107" depart="535.00">
        <route edges="left0to0/0 0/0to0/1 0/1to1/1 1/1toright1 right1to1/1"/>
    </vehicle>
    <vehicle id="0.108" depart="540.00">
        <route edges="left0to0/0 0/0to0/1 0/1to1/1 1/1toright1 right1to1/1"/>
    </vehicle>
    <vehicle id="0.109" depart="545.00">
        <route edges="left0to0/0 0/0to0/1 0/1to1/1 1/1toright1 right1to1/1"/>
    </vehicle>
    <vehicle id="0.110" depart="550.00">
        <route edges="left0to0/0 0/0to0/1 0/1to1/1 1/1toright1 right1to1/1"/>
    </vehicle>
    <vehicle id="0.111" depart="555.00">
        <route edges="left0to0/0 0/0to0/1 0/1to1/1 1/1toright1 right1to1/1"/>
    </vehicle>
    <vehicle id="0.112" depart="560.00">
        <route edges="left0to0/0 0/0to0/1 0/1to1/1 1/1toright1 right1to1/1"/>
    </vehicle>
    <vehicle id="0.113" depart="565.00">
        <route edges="left0to0/0 0/0to0/1 0/1to1/1 1/1toright1 right1to1/1"/>
    </vehicle>
    <vehicle id="0.114" depart="570.00">
        <route edges="left0to0/0 0/0to0/1 0/1to1/1 1/1toright1 right1to1/1"/>
    </vehicle>
    <vehicle id="0.115" depart="575.00">
        <route edges="left0to0/0 0/0to0/1 0/1to1/1 1/1toright1 right1to1/1"/>
    </vehicle>
    <vehicle id="0.116" depart="580.00">
        <route edges="left0to0/0 0/0to0/1 0/1to1/1 1/1toright1 right1to1/1"/>
    </vehicle>
    <vehicle id="0.117" depart="585.00">
        <route edges="left0to0/0 0/0to0/1 0/1to1/1 1/1toright1 right1to1/1"/>
    </vehicle>
    <vehicle id="0.118" depart="590.00">
        <route edges="left0to0/0 0/0to0/1 0/1to1/1 1/1toright1 right1to1/1"/>
    </vehicle>
    <vehicle id="0.119" depart="595.00">
        <route edges="left0to0/0 0/0to0/1 0/1to1/1 1/1toright1 right1to1/1"/>
    </vehicle>
    <vehicle id="0.120" depart="600.00">
        <route edges="left0to0/0 0/0to0/1 0/1to1/1 1/1toright1 right1to1/1"/>
    </vehicle>
    <vehicle id="0.121" depart="605.00">
        <route edges="left0to0/0 0/0to0/1 0/1to1/1 1/1toright1 right1to1/1"/>
    </vehicle>
    <vehicle id="0.122" depart="610.00">
        <route edges="left0to0/0 0/0to0/1 0/1to1/1 1/1toright1 right1to1/1"/>
    </vehicle>
    <vehicle id="0.123" depart="615.00">
        <route edges="left0to0/0 0/0to0/1 0/1to1/1 1/1toright1 right1to1/1"/>
    </vehicle>
    <vehicle id="0.124" depart="620.00">
        <route edges="left0to0/0 0/0to0/1 0/1to1/1 1/1toright1 right1to1/1"/>
    </vehicle>
    <vehicle id="0.125" depart="625.00">
        <route edges="left0to0/0 0/0to0/1 0/1to1/1 1/1toright1 right1to1/1"/>
    </vehicle>
    <vehicle id="0.126" depart="630.00">
        <route edges="left0to0/0 0/0to0/1 0/1to1/1 1/1toright1 right1to1/1"/>
    </vehicle>
    <vehicle id="0.127" depart="635.00">
        <route edges="left0to0/0 0/0to0/1 0/1to1/1 1/1toright1 right1to1/1"/>
    </vehicle>
    <vehicle id="0.128" depart="640.00">
        <route edges="left0to0/0 0/0to0/1 0/1to1/1 1/1toright1 right1to1/1"/>
    </vehicle>
    <vehicle id="0.129" depart="645.00">
        <route edges="left0to0/0 0/0to0/1 0/1to1/1 1/1toright1 right1to1/1"/>
    </vehicle>
    <vehicle id="0.130" depart="650.00">
        <route edges="left0to0/0 0/0to0/1 0/1to1/1 1/1toright1 right1to1/1"/>
    </vehicle>
    <vehicle id="0.131" depart="655.00">
        <route edges="left0to0/0 0/0to0/1 0/1to1/1 1/1toright1 right1to1/1"/>
    </vehicle>
    <vehicle id="0.132" depart="660.00">
        <route edges="left0to0/0 0/0to0/1 0/1to1/1 1/1toright1 right1to1/1"/>
    </vehicle>
    <vehicle id="0.133" depart="665.00">
        <route edges="left0to0/0 0/0to0/1 0/1to1/1 1/1toright1 right1to1/1"/>
    </vehicle>
    <vehicle id="0.134" depart="670.00">
        <route edges="left0to0/0 0/0to0/1 0/1to1/1 1/1toright1 right1to1/1"/>
    </vehicle>
    <vehicle id="0.135" depart="675.00">
        <route edges="left0to0/0 0/0to0/1 0/1to1/1 1/1toright1 right1to1/1"/>
    </vehicle>
    <vehicle id="0.136" depart="680.00">
        <route edges="left0to0/0 0/0to0/1 0/1to1/1 1/1toright1 right1to1/1"/>
    </vehicle>
    <vehicle id="0.137" depart="685.00">
        <route edges="left0to0/0 0/0to0/1 0/1to1/1 1/1toright1 right1to1/1"/>
    </vehicle>
    <vehicle id="0.138" depart="690.00">
        <route edges="left0to0/0 0/0to0/1 0/1to1/1 1/1toright1 right1to1/1"/>
    </vehicle>
    <vehicle id="0.139" depart="695.00">
        <route edges="left0to0/0 0/0to0/1 0/1to1/1 1/1toright1 right1to1/1"/>
    </vehicle>
    <vehicle id="0.140" depart="700.00">
        <route edges="left0to0/0 0/0to0/1 0/1to1/1 1/1toright1 right1to1/1"/>
    </vehicle>
    <vehicle id="0.141" depart="705.00">
        <route edges="left0to0/0 0/0to0/1 0/1to1/1 1/1toright1 right1to1/1"/>
    </vehicle>
    <vehicle id="0.142" depart="710.00">
        <route edges="left0to0/0 0/0to0/1 0/1to1/1 1/1toright1 right1to1/1"/>
    </vehicle>
    <vehicle id="0.143" depart="715.00">
        <route edges="left0to0/0 0/0to0/1 0/1to1/1 1/1toright1 right1to1/1"/>
    </vehicle>
    <vehicle id="0.144" depart="720.00">
        <route edges="left0to0/0 0/0to0/1 0/1to1/1 1/1toright1 right1to1/1"/>
    </vehicle>
    <vehicle id="0.145" depart="725.00">
        <route edges="left0to0/0 0/0to0/1 0/1to1/1 1/1toright1 right1to1/1"/>
    </vehicle>
    <vehicle id="0.146" depart="730.00">
        <route edges="left0to0/0 0/0to0/1 0/1to1/1 1/1toright1 right1to1/1"/>
    </vehicle>
    <vehicle id="0.147" depart="735.00">
        <route edges="left0to0/0 0/0to0/1 0/1to1/1 1/1toright1 right1to1/1"/>
    </vehicle>
    <vehicle id="0.148" depart="740.00">
        <route edges="left0to0/0 0/0to0/1 0/1to1/1 1/1toright1 right1to1/1"/>
    </vehicle>
    <vehicle id="0.149" depart="745.00">
        <route edges="left0to0/0 0/0to0/1 0/1to1/1 1/1toright1 right1to1/1"/>
    </vehicle>
    <vehicle id="0.150" depart="750.00">
        <route edges="left0to0/0 0/0to0/1 0/1to1/1 1/1toright1 right1to1/1"/>
    </vehicle>
    <vehicle id="0.151" depart="755.00">
        <route edges="left0to0/0 0/0to0/1 0/1to1/1 1/1toright1 right1to1/1"/>
    </vehicle>
    <vehicle id="0.152" depart="760.00">
        <route edges="left0to0/0 0/0to0/1 0/1to1/1 1/1toright1 right1to1/1"/>
    </vehicle>
    <vehicle id="0.153" depart="765.00">
        <route edges="left0to0/0 0/0to0/1 0/1to1/1 1/1toright1 right1to1/1"/>
    </vehicle>
    <vehicle id="0.154" depart="770.00">
        <route edges="left0to0/0 0/0to0/1 0/1to1/1 1/1toright1 right1to1/1"/>
    </vehicle>
    <vehicle id="0.155" depart="775.00">
        <route edges="left0to0/0 0/0to0/1 0/1to1/1 1/1toright1 right1to1/1"/>
    </vehicle>
    <vehicle id="0.156" depart="780.00">
        <route edges="left0to0/0 0/0to0/1 0/1to1/1 1/1toright1 right1to1/1"/>
    </vehicle>
    <vehicle id="0.157" depart="785.00">
        <route edges="left0to0/0 0/0to0/1 0/1to1/1 1/1toright1 right1to1/1"/>
    </vehicle>
    <vehicle id="0.158" depart="790.00">
        <route edges="left0to0/0 0/0to0/1 0/1to1/1 1/1toright1 right1to1/1"/>
    </vehicle>
    <vehicle id="0.159" depart="795.00">
        <route edges="left0to0/0 0/0to0/1 0/1to1/1 1/1toright1 right1to1/1"/>
    </vehicle>
    <vehicle id="0.160" depart="800.00">
        <route edges="left0to0/0 0/0to0/1 0/1to1/1 1/1toright1 right1to1/1"/>
    </vehicle>
    <vehicle id="0.161" depart="805.00">
        <route edges="left0to0/0 0/0to0/1 0/1to1/1 1/1toright1 right1to1/1"/>
    </vehicle>
    <vehicle id="0.162" depart="810.00">
        <route edges="left0to0/0 0/0to0/1 0/1to1/1 1/1toright1 right1to1/1"/>
    </vehicle>
    <vehicle id="0.163" depart="815.00">
        <route edges="left0to0/0 0/0to0/1 0/1to1/1 1/1toright1 right1to1/1"/>
    </vehicle>
    <vehicle id="0.164" depart="820.00">
        <route edges="left0to0/0 0/0to0/1 0/1to1/1 1/1toright1 right1to1/1"/>
    </vehicle>
    <vehicle id="0.165" depart="825.00">
        <route edges="left0to0/0 0/0to0/1 0/1to1/1 1/1toright1 right1to1/1"/>
    </vehicle>
    <vehicle id="0.166" depart="830.00">
        <route edges="left0to0/0 0/0to0/1 0/1to1/1 1/1toright1 right1to1/1"/>
    </vehicle>
    <vehicle id="0.167" depart="835.00">
        <route edges="left0to0/0 0/0to0/1 0/1to1/1 1/1toright1 right1to1/1"/>
    </vehicle>
    <vehicle id="0.168" depart="840.00">
        <route edges="left0to0/0 0/0to0/1 0/1to1/1 1/1toright1 right1to1/1"/>
    </vehicle>
    <vehicle id="0.169" depart="845.00">
        <route edges="left0to0/0 0/0to0/1 0/1to1/1 1/1toright1 right1to1/1"/>
    </vehicle>
    <vehicle id="0.170" depart="850.00">
        <route edges="left0to0/0 0/0to0/1 0/1to1/1 1/1toright1 right1to1/1"/>
    </vehicle>
    <vehicle id="0.171" depart="855.00">
        <route edges="left0to0/0 0/0to0/1 0/1to1/1 1/1toright1 right1to1/1"/>
    </vehicle>
    <vehicle id="0.172" depart="860.00">
        <route edges="left0to0/0 0/0to0/1 0/1to1/1 1/1toright1 right1to1/1"/>
    </vehicle>
    <vehicle id="0.173" depart="865.00">
        <route edges="left0to0/0 0/0to0/1 0/1to1/1 1/1toright1 right1to1/1"/>
    </vehicle>
    <vehicle id="0.174" depart="870.00">
        <route edges="left0to0/0 0/0to0/1 0/1to1/1 1/1toright1 right1to1/1"/>
    </vehicle>
    <vehicle id="0.175" depart="875.00">
        <route edges="left0to0/0 0/0to0/1 0/1to1/1 1/1toright1 right1to1/1"/>
    </vehicle>
    <vehicle id="0.176" depart="880.00">
        <route edges="left0to0/0 0/0to0/1 0/1to1/1 1/1toright1 right1to1/1"/>
    </vehicle>
    <vehicle id="0.177" depart="885.00">
        <route edges="left0to0/0 0/0to0/1 0/1to1/1 1/1toright1 right1to1/1"/>
    </vehicle>
    <vehicle id="0.178" depart="890.00">
        <route edges="left0to0/0 0/0to0/1 0/1to1/1 1/1toright1 right1to1/1"/>
    </vehicle>
    <vehicle id="0.179" depart="895.00">
        <route edges="left0to0/0 0/0to0/1 0/1to1/1 1/1toright1 right1to1/1"/>
    </vehicle>
    <vehicle id="0.180" depart="900.00">
        <route edges="left0to0/0 0/0to0/1 0/1to1/1 1/1toright1 right1to1/1"/>
    </vehicle>
    <vehicle id="0.181" depart="905.00">
        <route edges="left0to0/0 0/0to0/1 0/1to1/1 1/1toright1 right1to1/1"/>
    </vehicle>
    <vehicle id="0.182" depart="910.00">
        <route edges="left0to0/0 0/0to0/1 0/1to1/1 1/1toright1 right1to1/1"/>
    </vehicle>
    <vehicle id="0.183" depart="915.00">
        <route edges="left0to0/0 0/0to0/1 0/1to1/1 1/1toright1 right1to1/1"/>
    </vehicle>
    <vehicle id="0.184" depart="920.00">
        <route edges="left0to0/0 0/0to0/1 0/1to1/1 1/1toright1 right1to1/1"/>
    </vehicle>
    <vehicle id="0.185" depart="925.00">
        <route edges="left0to0/0 0/0to0/1 0/1to1/1 1/1toright1 right1to1/1"/>
    </vehicle>
    <vehicle id="0.186" depart="930.00">
        <route edges="left0to0/0 0/0to0/1 0/1to1/1 1/1toright1 right1to1/1"/>
    </vehicle>
    <vehicle id="0.187" depart="935.00">
        <route edges="left0to0/0 0/0to0/1 0/1to1/1 1/1toright1 right1to1/1"/>
    </vehicle>
    <vehicle id="0.188" depart="940.00">
        <route edges="left0to0/0 0/0to0/1 0/1to1/1 1/1toright1 right1to1/1"/>
    </vehicle>
    <vehicle id="0.189" depart="945.00">
        <route edges="left0to0/0 0/0to0/1 0/1to1/1 1/1toright1 right1to1/1"/>
    </vehicle>
    <vehicle id="0.190" depart="950.00">
        <route edges="left0to0/0 0/0to0/1 0/1to1/1 1/1toright1 right1to1/1"/>
    </vehicle>
    <vehicle id="0.191" depart="955.00">
        <route edges="left0to0/0 0/0to0/1 0/1to1/1 1/1toright1 right1to1/1"/>
    </vehicle>
    <vehicle id="0.192" depart="960.00">
        <route edges="left0to0/0 0/0to0/1 0/1to1/1 1/1toright1 right1to1/1"/>
    </vehicle>
    <vehicle id="0.193" depart="965.00">
        <route edges="left0to0/0 0/0to0/1 0/1to1/1 1/1toright1 right1to1/1"/>
    </vehicle>
    <vehicle id="0.194" depart="970.00">
        <route edges="left0to0/0 0/0to0/1 0/1to1/1 1/1toright1 right1to1/1"/>
    </vehicle>
    <vehicle id="0.195" depart="975.00">
        <route edges="left0to0/0 0/0to0/1 0/1to1/1 1/1toright1 right1to1/1"/>
    </vehicle>
    <vehicle id="0.196" depart="980.00">
        <route edges="left0to0/0 0/0to0/1 0/1to1/1 1/1toright1 right1to1/1"/>
    </vehicle>
    <vehicle id="0.197" depart="985.00">
        <route edges="left0to0/0 0/0to0/1 0/1to1/1 1/1toright1 right1to1/1"/>
    </vehicle>
    <vehicle id="0.198" depart="990.00">
        <route edges="left0to0/0 0/0to0/1 0/1to1/1 1/1toright1 right1to1/1"/>
    </vehicle>
    <vehicle id="0.199" depart="995.00">
        <route edges="left0to0/0 0/0to0/1 0/1to1/1 1/1toright1 right1to1/1"/>
    </vehicle>
</routes>
