<edges><edge id="0" from="4" to="5" priority="100" numLanes="1" speed="100.000000"/>
<edge id="1" from="5" to="4" priority="100" numLanes="1" speed="100.000000"/>
<edge id="2" from="5" to="6" priority="100" numLanes="1" speed="100.000000"/>
<edge id="3" from="6" to="5" priority="100" numLanes="1" speed="100.000000"/>
<edge id="4" from="6" to="7" priority="100" numLanes="1" speed="100.000000"/>
<edge id="5" from="7" to="6" priority="100" numLanes="1" speed="100.000000"/>
<edge id="6" from="8" to="9" priority="100" numLanes="1" speed="100.000000"/>
<edge id="7" from="9" to="8" priority="100" numLanes="1" speed="100.000000"/>
<edge id="8" from="9" to="10" priority="100" numLanes="1" speed="100.000000"/>
<edge id="9" from="10" to="9" priority="100" numLanes="1" speed="100.000000"/>
<edge id="10" from="10" to="11" priority="100" numLanes="1" speed="100.000000"/>
<edge id="11" from="11" to="10" priority="100" numLanes="1" speed="100.000000"/>
<edge id="12" from="1" to="5" priority="100" numLanes="1" speed="100.000000"/>
<edge id="13" from="5" to="1" priority="100" numLanes="1" speed="100.000000"/>
<edge id="14" from="2" to="6" priority="100" numLanes="1" speed="100.000000"/>
<edge id="15" from="6" to="2" priority="100" numLanes="1" speed="100.000000"/>
<edge id="16" from="5" to="9" priority="100" numLanes="1" speed="100.000000"/>
<edge id="17" from="9" to="5" priority="100" numLanes="1" speed="100.000000"/>
<edge id="18" from="6" to="10" priority="100" numLanes="1" speed="100.000000"/>
<edge id="19" from="10" to="6" priority="100" numLanes="1" speed="100.000000"/>
<edge id="20" from="9" to="13" priority="100" numLanes="1" speed="100.000000"/>
<edge id="21" from="13" to="9" priority="100" numLanes="1" speed="100.000000"/>
<edge id="22" from="10" to="14" priority="100" numLanes="1" speed="100.000000"/>
<edge id="23" from="14" to="10" priority="100" numLanes="1" speed="100.000000"/>
</edges>