<?xml version="1.0"?>
<!-- generated on 2013-11-11 13:31:23.019435 by $Id: randomTrips.py 14425 2013-08-16 20:11:47Z behrisch $ -->
<trips>
    <trip id="0" depart="0.00" from="1/0to0/0" to="bottom1to1/0" />
    <trip id="1" depart="5.00" from="1/1toright1" to="0/0tobottom0" />
    <trip id="2" depart="10.00" from="top1to1/1" to="0/1totop0" />
    <trip id="3" depart="15.00" from="top1to1/1" to="1/1totop1" />
    <trip id="4" depart="20.00" from="0/0to1/0" to="0/0to0/1" />
    <trip id="5" depart="25.00" from="0/1to0/0" to="0/1to0/0" />
    <trip id="6" depart="30.00" from="1/0to1/1" to="left0to0/0" />
    <trip id="7" depart="35.00" from="right1to1/1" to="right1to1/1" />
    <trip id="8" depart="40.00" from="top0to0/1" to="right0to1/0" />
    <trip id="9" depart="45.00" from="top1to1/1" to="1/1toright1" />
    <trip id="10" depart="50.00" from="0/1to0/0" to="bottom0to0/0" />
    <trip id="11" depart="55.00" from="1/1totop1" to="left1to0/1" />
    <trip id="12" depart="60.00" from="1/0tobottom1" to="top0to0/1" />
    <trip id="13" depart="65.00" from="right0to1/0" to="0/0tobottom0" />
    <trip id="14" depart="70.00" from="0/1toleft1" to="1/0toright0" />
    <trip id="15" depart="75.00" from="0/1to0/0" to="bottom0to0/0" />
    <trip id="16" depart="80.00" from="right1to1/1" to="0/1to0/0" />
    <trip id="17" depart="85.00" from="0/1totop0" to="0/0toleft0" />
    <trip id="18" depart="90.00" from="left1to0/1" to="top1to1/1" />
    <trip id="19" depart="95.00" from="0/1to0/0" to="top1to1/1" />
    <trip id="20" depart="100.00" from="0/0toleft0" to="bottom0to0/0" />
    <trip id="21" depart="105.00" from="0/0to0/1" to="left1to0/1" />
    <trip id="22" depart="110.00" from="0/0tobottom0" to="1/1toright1" />
    <trip id="23" depart="115.00" from="0/0to0/1" to="0/0tobottom0" />
    <trip id="24" depart="120.00" from="1/1to1/0" to="1/1to0/1" />
    <trip id="25" depart="125.00" from="0/1to1/1" to="0/0to0/1" />
    <trip id="26" depart="130.00" from="0/1to1/1" to="1/0to1/1" />
    <trip id="27" depart="135.00" from="top1to1/1" to="0/1toleft1" />
    <trip id="28" depart="140.00" from="top0to0/1" to="1/1totop1" />
    <trip id="29" depart="145.00" from="top0to0/1" to="0/1to0/0" />
    <trip id="30" depart="150.00" from="left0to0/0" to="0/0to1/0" />
    <trip id="31" depart="155.00" from="1/1to0/1" to="0/1to1/1" />
    <trip id="32" depart="160.00" from="right0to1/0" to="0/0toleft0" />
    <trip id="33" depart="165.00" from="0/1to0/0" to="right0to1/0" />
    <trip id="34" depart="170.00" from="1/1totop1" to="1/0toright0" />
    <trip id="35" depart="175.00" from="right1to1/1" to="0/0to1/0" />
    <trip id="36" depart="180.00" from="0/0toleft0" to="left1to0/1" />
    <trip id="37" depart="185.00" from="0/1toleft1" to="1/1totop1" />
    <trip id="38" depart="190.00" from="right0to1/0" to="bottom0to0/0" />
    <trip id="39" depart="195.00" from="0/1toleft1" to="0/0to1/0" />
    <trip id="40" depart="200.00" from="1/1totop1" to="top1to1/1" />
    <trip id="41" depart="205.00" from="0/0to0/1" to="1/1toright1" />
    <trip id="42" depart="210.00" from="1/1to0/1" to="top1to1/1" />
    <trip id="43" depart="215.00" from="0/0to1/0" to="0/1totop0" />
    <trip id="44" depart="220.00" from="0/1to1/1" to="1/1to0/1" />
    <trip id="45" depart="225.00" from="1/1totop1" to="0/0tobottom0" />
    <trip id="46" depart="230.00" from="right0to1/0" to="0/0to0/1" />
    <trip id="47" depart="235.00" from="left0to0/0" to="top1to1/1" />
    <trip id="48" depart="240.00" from="0/0to1/0" to="left1to0/1" />
    <trip id="49" depart="245.00" from="0/0toleft0" to="left0to0/0" />
    <trip id="50" depart="250.00" from="0/1totop0" to="1/0tobottom1" />
    <trip id="51" depart="255.00" from="top1to1/1" to="bottom1to1/0" />
    <trip id="52" depart="260.00" from="1/0toright0" to="0/0to1/0" />
    <trip id="53" depart="265.00" from="1/0tobottom1" to="0/1totop0" />
    <trip id="54" depart="270.00" from="right0to1/0" to="0/1to0/0" />
    <trip id="55" depart="275.00" from="0/0tobottom0" to="bottom1to1/0" />
    <trip id="56" depart="280.00" from="right0to1/0" to="0/1totop0" />
    <trip id="57" depart="285.00" from="0/1to0/0" to="left0to0/0" />
    <trip id="58" depart="290.00" from="bottom1to1/0" to="1/0tobottom1" />
    <trip id="59" depart="295.00" from="top0to0/1" to="right1to1/1" />
</trips>