<flows>
    <flow id="0" from="left0to0/0" to="1/0toright0" begin="0" end="100" number="50"/>
    <flow id="1" from="right0to1/0" to="0/0toleft0" begin="200" end="300" number="50"/>
    <flow id="2" from="0/1to0/0" to="0/0tobottom0" begin="400" end="500" number="50"/>
    <flow id="3" from="bottom0to0/0" to="0/0to0/1" begin="600" end="700" number="50"/>
</flows>
